*SPEF "ieee 1481-1999"
*DESIGN "twos_complement"
*DATE "14:21:41 Sunday April 27, 2025"
*VENDOR "The OpenROAD Project"
*PROGRAM "OpenROAD"
*VERSION "b16bda7e82721d10566ff7e2b68f1ff0be9f9e38"
*DESIGN_FLOW "NAME_SCOPE LOCAL" "PIN_CAP NONE"
*DIVIDER /
*DELIMITER :
*BUS_DELIMITER []
*T_UNIT 1 NS
*C_UNIT 1 PF
*R_UNIT 1 OHM
*L_UNIT 1 HENRY

*NAME_MAP
*1 LED[0]
*2 LED[1]
*3 LED[2]
*4 LED[3]
*5 LED[4]
*6 LED[5]
*7 LED[6]
*8 LED[7]
*9 SW[0]
*10 SW[1]
*11 SW[2]
*12 SW[3]
*13 SW[4]
*14 SW[5]
*15 SW[6]
*16 SW[7]
*19 _00_
*20 _01_
*21 _02_
*22 _03_
*23 _04_
*24 _05_
*25 _06_
*26 _07_
*27 _08_
*28 _09_
*29 net1
*30 net10
*31 net11
*32 net12
*33 net13
*34 net14
*35 net15
*36 net16
*37 net2
*38 net3
*39 net4
*40 net5
*41 net6
*42 net7
*43 net8
*44 net9
*45 FILLER_0_0_21
*46 FILLER_0_0_29
*47 FILLER_0_0_37
*48 FILLER_0_0_9
*49 FILLER_0_10_18
*50 FILLER_0_10_26
*51 FILLER_0_10_29
*52 FILLER_0_10_41
*53 FILLER_0_10_6
*54 FILLER_0_11_15
*55 FILLER_0_11_24
*56 FILLER_0_11_3
*57 FILLER_0_11_36
*58 FILLER_0_12_14
*59 FILLER_0_12_26
*60 FILLER_0_12_29
*61 FILLER_0_12_34
*62 FILLER_0_12_9
*63 FILLER_0_1_12
*64 FILLER_0_1_24
*65 FILLER_0_1_3
*66 FILLER_0_1_33
*67 FILLER_0_1_45
*68 FILLER_0_2_15
*69 FILLER_0_2_27
*70 FILLER_0_2_29
*71 FILLER_0_2_3
*72 FILLER_0_2_37
*73 FILLER_0_2_45
*74 FILLER_0_3_12
*75 FILLER_0_3_25
*76 FILLER_0_3_37
*77 FILLER_0_3_43
*78 FILLER_0_3_6
*79 FILLER_0_4_15
*80 FILLER_0_4_27
*81 FILLER_0_4_3
*82 FILLER_0_4_32
*83 FILLER_0_4_41
*84 FILLER_0_5_18
*85 FILLER_0_5_30
*86 FILLER_0_5_42
*87 FILLER_0_5_6
*88 FILLER_0_6_15
*89 FILLER_0_6_27
*90 FILLER_0_6_29
*91 FILLER_0_6_3
*92 FILLER_0_6_37
*93 FILLER_0_6_41
*94 FILLER_0_6_47
*95 FILLER_0_7_15
*96 FILLER_0_7_27
*97 FILLER_0_7_3
*98 FILLER_0_7_39
*99 FILLER_0_7_47
*100 FILLER_0_8_14
*101 FILLER_0_8_22
*102 FILLER_0_8_36
*103 FILLER_0_8_6
*104 FILLER_0_9_20
*105 FILLER_0_9_3
*106 FILLER_0_9_32
*107 FILLER_0_9_44
*108 PHY_EDGE_ROW_0_Left_13
*109 PHY_EDGE_ROW_0_Right_0
*110 PHY_EDGE_ROW_10_Left_23
*111 PHY_EDGE_ROW_10_Right_10
*112 PHY_EDGE_ROW_11_Left_24
*113 PHY_EDGE_ROW_11_Right_11
*114 PHY_EDGE_ROW_12_Left_25
*115 PHY_EDGE_ROW_12_Right_12
*116 PHY_EDGE_ROW_1_Left_14
*117 PHY_EDGE_ROW_1_Right_1
*118 PHY_EDGE_ROW_2_Left_15
*119 PHY_EDGE_ROW_2_Right_2
*120 PHY_EDGE_ROW_3_Left_16
*121 PHY_EDGE_ROW_3_Right_3
*122 PHY_EDGE_ROW_4_Left_17
*123 PHY_EDGE_ROW_4_Right_4
*124 PHY_EDGE_ROW_5_Left_18
*125 PHY_EDGE_ROW_5_Right_5
*126 PHY_EDGE_ROW_6_Left_19
*127 PHY_EDGE_ROW_6_Right_6
*128 PHY_EDGE_ROW_7_Left_20
*129 PHY_EDGE_ROW_7_Right_7
*130 PHY_EDGE_ROW_8_Left_21
*131 PHY_EDGE_ROW_8_Right_8
*132 PHY_EDGE_ROW_9_Left_22
*133 PHY_EDGE_ROW_9_Right_9
*134 TAP_TAPCELL_ROW_0_26
*135 TAP_TAPCELL_ROW_10_31
*136 TAP_TAPCELL_ROW_12_32
*137 TAP_TAPCELL_ROW_2_27
*138 TAP_TAPCELL_ROW_4_28
*139 TAP_TAPCELL_ROW_6_29
*140 TAP_TAPCELL_ROW_8_30
*141 _10_
*142 _11_
*143 _12_
*144 _13_
*145 _14_
*146 _15_
*147 _16_
*148 _17_
*149 _18_
*150 _19_
*151 _20_
*152 _21_
*153 _22_
*154 _23_
*155 _24_
*156 _25_
*157 _26_
*158 _27_
*159 input1
*160 input2
*161 input3
*162 input4
*163 input5
*164 input6
*165 input7
*166 input8
*167 output10
*168 output11
*169 output12
*170 output13
*171 output14
*172 output15
*173 output16
*174 output9

*PORTS
LED[0] O
LED[1] O
LED[2] O
LED[3] O
LED[4] O
LED[5] O
LED[6] O
LED[7] O
SW[0] I
SW[1] I
SW[2] I
SW[3] I
SW[4] I
SW[5] I
SW[6] I
SW[7] I

*D_NET *1 0.00109227
*CONN
*P LED[0] O
*I *174:X O *D sky130_fd_sc_hd__buf_2
*CAP
1 LED[0] 0.000546133
2 *174:X 0.000546133
3 LED[0] LED[1] 0
*RES
1 *174:X LED[0] 9.66983 
*END

*D_NET *2 0.000411239
*CONN
*P LED[1] O
*I *167:X O *D sky130_fd_sc_hd__buf_2
*CAP
1 LED[1] 0.00020562
2 *167:X 0.00020562
3 LED[1] LED[2] 0
4 LED[0] LED[1] 0
*RES
1 *167:X LED[1] 4.84677 
*END

*D_NET *3 0.000422396
*CONN
*P LED[2] O
*I *168:X O *D sky130_fd_sc_hd__buf_2
*CAP
1 LED[2] 0.000205342
2 *168:X 0.000205342
3 LED[2] LED[3] 0
4 LED[2] *167:A 1.17114e-05
5 LED[1] LED[2] 0
*RES
1 *168:X LED[2] 4.84677 
*END

*D_NET *4 0.000625327
*CONN
*P LED[3] O
*I *169:X O *D sky130_fd_sc_hd__buf_2
*CAP
1 LED[3] 0.000229146
2 *169:X 0.000229146
3 LED[3] LED[4] 0
4 LED[3] *154:A 0.000106344
5 LED[3] *167:A 6.06899e-05
6 LED[2] LED[3] 0
*RES
1 *169:X LED[3] 5.86677 
*END

*D_NET *5 0.000428223
*CONN
*P LED[4] O
*I *170:X O *D sky130_fd_sc_hd__buf_2
*CAP
1 LED[4] 0.000198823
2 *170:X 0.000198823
3 LED[4] LED[5] 0
4 LED[4] *154:A 1.88656e-05
5 LED[4] *170:A 1.17114e-05
6 LED[3] LED[4] 0
*RES
1 *170:X LED[4] 4.84677 
*END

*D_NET *6 0.0005579
*CONN
*P LED[5] O
*I *171:X O *D sky130_fd_sc_hd__buf_2
*CAP
1 LED[5] 0.000248605
2 *171:X 0.000248605
3 LED[5] LED[6] 0
4 LED[5] *170:A 6.06899e-05
5 LED[4] LED[5] 0
*RES
1 *171:X LED[5] 5.86677 
*END

*D_NET *7 0.000766692
*CONN
*P LED[6] O
*I *172:X O *D sky130_fd_sc_hd__buf_2
*CAP
1 LED[6] 0.000383346
2 *172:X 0.000383346
3 LED[6] LED[7] 0
4 LED[5] LED[6] 0
*RES
1 *172:X LED[6] 5.25463 
*END

*D_NET *8 0.000971234
*CONN
*P LED[7] O
*I *173:X O *D sky130_fd_sc_hd__clkbuf_4
*CAP
1 LED[7] 0.000485617
2 *173:X 0.000485617
3 LED[6] LED[7] 0
*RES
1 *173:X LED[7] 10.1435 
*END

*D_NET *9 0.00101438
*CONN
*P SW[0] I
*I *159:A I *D sky130_fd_sc_hd__buf_1
*CAP
1 SW[0] 0.000507191
2 *159:A 0.000507191
3 *159:A *147:B 0
4 *159:A *160:A 0
*RES
1 SW[0] *159:A 10.2018 
*END

*D_NET *10 0.000747554
*CONN
*P SW[1] I
*I *160:A I *D sky130_fd_sc_hd__buf_1
*CAP
1 SW[1] 0.000363223
2 *160:A 0.000363223
3 *160:A *147:A 0
4 *160:A *161:A 0
5 *160:A *29:10 2.11084e-05
6 *159:A *160:A 0
*RES
1 SW[1] *160:A 8.2293 
*END

*D_NET *11 0.000531065
*CONN
*P SW[2] I
*I *161:A I *D sky130_fd_sc_hd__buf_1
*CAP
1 SW[2] 0.000265532
2 *161:A 0.000265532
3 *161:A *162:A 0
4 *160:A *161:A 0
*RES
1 SW[2] *161:A 6.8343 
*END

*D_NET *12 0.000645774
*CONN
*P SW[3] I
*I *162:A I *D sky130_fd_sc_hd__clkbuf_1
*CAP
1 SW[3] 0.000322887
2 *162:A 0.000322887
3 *162:A *146:A 0
4 *162:A *163:A 0
5 *161:A *162:A 0
*RES
1 SW[3] *162:A 7.8543 
*END

*D_NET *13 0.0005615
*CONN
*P SW[4] I
*I *163:A I *D sky130_fd_sc_hd__buf_1
*CAP
1 SW[4] 0.00028075
2 *163:A 0.00028075
3 *163:A *146:A 0
4 *163:A *164:A 0
5 *162:A *163:A 0
*RES
1 SW[4] *163:A 7.0893 
*END

*D_NET *14 0.000666425
*CONN
*P SW[5] I
*I *164:A I *D sky130_fd_sc_hd__buf_1
*CAP
1 SW[5] 0.000333212
2 *164:A 0.000333212
3 *164:A *146:A 0
4 *164:A *165:A 0
5 *163:A *164:A 0
*RES
1 SW[5] *164:A 8.1093 
*END

*D_NET *15 0.000523624
*CONN
*P SW[6] I
*I *165:A I *D sky130_fd_sc_hd__buf_1
*CAP
1 SW[6] 0.000261812
2 *165:A 0.000261812
3 *165:A *166:A 0
4 *164:A *165:A 0
*RES
1 SW[6] *165:A 6.8343 
*END

*D_NET *16 0.00115517
*CONN
*P SW[7] I
*I *166:A I *D sky130_fd_sc_hd__clkbuf_1
*CAP
1 SW[7] 0.000577586
2 *166:A 0.000577586
3 *165:A *166:A 0
*RES
1 SW[7] *166:A 10.6316 
*END

*D_NET *19 0.0021457
*CONN
*I *157:A I *D sky130_fd_sc_hd__nor2_1
*I *142:B I *D sky130_fd_sc_hd__xnor2_1
*I *141:Y O *D sky130_fd_sc_hd__nor2_1
*CAP
1 *157:A 0.000263033
2 *142:B 0.000127074
3 *141:Y 0
4 *19:6 0.000390107
5 *142:B *144:B 0.000114492
6 *142:B *148:A 0
7 *142:B *155:B 0.000396638
8 *142:B *29:16 7.23602e-05
9 *142:B *29:18 0.000181376
10 *142:B *37:24 1.15688e-05
11 *157:A *153:A 0.000288938
12 *157:A *155:B 9.50342e-06
13 *157:A *29:16 0.000290605
*RES
1 *141:Y *19:6 3.6 
2 *19:6 *142:B 8.295 
3 *19:6 *157:A 9.54 
*END

*D_NET *20 0.000564369
*CONN
*I *145:A_N I *D sky130_fd_sc_hd__and2b_1
*I *143:X O *D sky130_fd_sc_hd__o31a_1
*CAP
1 *145:A_N 0.000121943
2 *143:X 0.000121943
3 *145:A_N *37:20 1.08758e-05
4 *145:A_N *39:14 0.000309607
*RES
1 *143:X *145:A_N 6.065 
*END

*D_NET *21 0.0079311
*CONN
*I *151:D I *D sky130_fd_sc_hd__or4_1
*I *145:B I *D sky130_fd_sc_hd__and2b_1
*I *147:B I *D sky130_fd_sc_hd__nor2_1
*I *152:A3 I *D sky130_fd_sc_hd__o31ai_1
*I *148:B I *D sky130_fd_sc_hd__and2_1
*I *144:X O *D sky130_fd_sc_hd__or4_2
*CAP
1 *151:D 0
2 *145:B 0
3 *147:B 0.000124883
4 *152:A3 0.000199146
5 *148:B 0.000556914
6 *144:X 0.000143411
7 *21:49 0.000649751
8 *21:43 0.0011904
9 *21:16 0.00155275
10 *21:12 0.000274563
11 *147:B *23:10 0.000157097
12 *148:B *144:D 2.46007e-05
13 *148:B *155:A 0.000124007
14 *148:B *155:B 6.95335e-05
15 *148:B *168:A 0.000291372
16 *148:B *169:A 0
17 *148:B *172:A 0
18 *148:B *38:14 0.000183987
19 *152:A3 *152:B1 2.20014e-05
20 *152:A3 *153:B 4.77719e-05
21 *21:12 *157:B 8.08153e-06
22 *21:12 *170:A 0.00027064
23 *21:12 *172:A 0.000223108
24 *21:16 *151:A 8.40269e-05
25 *21:16 *151:C 2.05056e-05
26 *21:43 *152:A2 0.000160651
27 *21:43 *168:A 0.000626456
28 *21:43 *23:10 0
29 *21:43 *38:14 0.000345146
30 *21:43 *39:14 3.09354e-05
31 *21:49 *23:10 0.000456467
32 *21:49 *39:14 9.28985e-05
33 *159:A *147:B 0
*RES
1 *144:X *21:12 9.905 
2 *21:12 *21:16 3.83 
3 *21:16 *148:B 15.27 
4 *21:16 *21:43 21.555 
5 *21:43 *21:49 8.945 
6 *21:49 *152:A3 6.48 
7 *21:49 *147:B 6 
8 *21:43 *145:B 1.6 
9 *21:12 *151:D 1.6 
*END

*D_NET *22 0.00246399
*CONN
*I *146:A I *D sky130_fd_sc_hd__clkbuf_1
*I *145:X O *D sky130_fd_sc_hd__and2b_1
*CAP
1 *146:A 0.00112013
2 *145:X 0.00112013
3 *146:A *149:A 0
4 *146:A *23:10 0
5 *146:A *39:14 0.000223726
6 *162:A *146:A 0
7 *163:A *146:A 0
8 *164:A *146:A 0
*RES
1 *145:X *146:A 24.375 
*END

*D_NET *23 0.00365077
*CONN
*I *150:B I *D sky130_fd_sc_hd__xnor2_1
*I *149:A I *D sky130_fd_sc_hd__nor2_1
*I *147:Y O *D sky130_fd_sc_hd__nor2_1
*CAP
1 *150:B 0
2 *149:A 0.000290951
3 *147:Y 0.00102827
4 *23:10 0.00131922
5 *149:A *149:B 0.000124473
6 *149:A *156:A 0
7 *149:A *169:A 3.04704e-05
8 *149:A *170:A 0.00016031
9 *149:A *42:10 0
10 *23:10 *147:A 8.35068e-05
11 *23:10 *152:A2 0
12 *23:10 *152:B1 0
13 *23:10 *153:B 0
14 *23:10 *156:A 0
15 *23:10 *41:19 0
16 *23:10 *42:10 0
17 *146:A *149:A 0
18 *146:A *23:10 0
19 *147:B *23:10 0.000157097
20 *21:43 *23:10 0
21 *21:49 *23:10 0.000456467
*RES
1 *147:Y *23:10 22.35 
2 *23:10 *149:A 9.465 
3 *23:10 *150:B 3.6 
*END

*D_NET *24 0.00106842
*CONN
*I *149:B I *D sky130_fd_sc_hd__nor2_1
*I *148:X O *D sky130_fd_sc_hd__and2_1
*CAP
1 *149:B 0.000169739
2 *148:X 0.000169739
3 *149:B *148:A 0
4 *149:B *169:A 0.000270134
5 *149:B *170:A 0.000196761
6 *149:B *42:10 0.000137578
7 *149:A *149:B 0.000124473
*RES
1 *148:X *149:B 13.08 
*END

*D_NET *25 0.00484177
*CONN
*I *153:A I *D sky130_fd_sc_hd__and2_1
*I *155:B I *D sky130_fd_sc_hd__xor2_1
*I *151:X O *D sky130_fd_sc_hd__or4_1
*CAP
1 *153:A 0.000507836
2 *155:B 0.000282263
3 *151:X 8.88903e-05
4 *25:8 0.000878989
5 *153:A *153:B 0.000124473
6 *153:A *154:A 0.000283858
7 *153:A *29:16 0.000192741
8 *153:A *37:12 0.000181376
9 *153:A *38:10 0.00017354
10 *153:A *38:14 0.000651209
11 *155:B *148:A 0
12 *155:B *155:A 0
13 *155:B *169:A 0.00012657
14 *155:B *170:A 5.07419e-05
15 *155:B *38:14 0.000414016
16 *25:8 *151:B 0.000120655
17 *142:B *155:B 0.000396638
18 *148:B *155:B 6.95335e-05
19 *157:A *153:A 0.000288938
20 *157:A *155:B 9.50342e-06
*RES
1 *151:X *25:8 4.74 
2 *25:8 *155:B 11.73 
3 *25:8 *153:A 19.11 
*END

*D_NET *26 0.00103158
*CONN
*I *153:B I *D sky130_fd_sc_hd__and2_1
*I *152:Y O *D sky130_fd_sc_hd__o31ai_1
*CAP
1 *153:B 0.000241641
2 *152:Y 0.000241641
3 *153:B *152:A2 0.0003175
4 *153:B *152:B1 5.85516e-05
5 *152:A3 *153:B 4.77719e-05
6 *153:A *153:B 0.000124473
7 *23:10 *153:B 0
*RES
1 *152:Y *153:B 12.72 
*END

*D_NET *27 0.00328404
*CONN
*I *154:A I *D sky130_fd_sc_hd__clkbuf_1
*I *153:X O *D sky130_fd_sc_hd__and2_1
*CAP
1 *154:A 0.00133268
2 *153:X 0.00133268
3 *154:A *157:B 0
4 *154:A *167:A 0.000128491
5 *154:A *169:A 0
6 *154:A *170:A 8.11134e-05
7 LED[3] *154:A 0.000106344
8 LED[4] *154:A 1.88656e-05
9 *153:A *154:A 0.000283858
*RES
1 *153:X *154:A 26.76 
*END

*D_NET *28 0.00211731
*CONN
*I *157:B I *D sky130_fd_sc_hd__nor2_1
*I *156:X O *D sky130_fd_sc_hd__and2_1
*CAP
1 *157:B 0.000515985
2 *156:X 0.000515985
3 *157:B *156:B 0.000234674
4 *157:B *169:A 0.000522176
5 *157:B *170:A 0
6 *157:B *171:A 0.000201885
7 *157:B *172:A 0.000118527
8 *154:A *157:B 0
9 *21:12 *157:B 8.08153e-06
*RES
1 *156:X *157:B 18.795 
*END

*D_NET *29 0.00742195
*CONN
*I *158:A I *D sky130_fd_sc_hd__clkbuf_1
*I *143:A2 I *D sky130_fd_sc_hd__o31a_1
*I *141:B I *D sky130_fd_sc_hd__nor2_1
*I *156:B I *D sky130_fd_sc_hd__and2_1
*I *144:B I *D sky130_fd_sc_hd__or4_2
*I *159:X O *D sky130_fd_sc_hd__buf_1
*CAP
1 *158:A 3.51031e-05
2 *143:A2 4.79834e-05
3 *141:B 1.36534e-05
4 *156:B 9.52158e-05
5 *144:B 0.000266558
6 *159:X 0.000304429
7 *29:18 0.000411864
8 *29:16 0.000253657
9 *29:14 0.000576391
10 *29:10 0.000678027
11 *141:B *151:A 4.66108e-05
12 *141:B *151:C 4.66108e-05
13 *143:A2 *37:20 4.66108e-05
14 *143:A2 *39:14 1.34503e-05
15 *144:B *144:A 0.000210605
16 *144:B *37:24 0.000116158
17 *156:B *171:A 0.000309612
18 *158:A *174:A 1.85674e-05
19 *158:A *37:12 4.66108e-05
20 *29:10 *147:A 0.00027117
21 *29:10 *37:12 0.000845037
22 *29:14 *147:A 0
23 *29:14 *37:12 0.000718789
24 *29:14 *40:10 0
25 *29:16 *37:12 2.92496e-05
26 *29:16 *37:20 0.000728608
27 *29:18 *37:20 9.50342e-06
28 *29:18 *37:24 0.000174519
29 *142:B *144:B 0.000114492
30 *142:B *29:16 7.23602e-05
31 *142:B *29:18 0.000181376
32 *153:A *29:16 0.000192741
33 *157:A *29:16 0.000290605
34 *157:B *156:B 0.000234674
35 *160:A *29:10 2.11084e-05
*RES
1 *159:X *29:10 10.795 
2 *29:10 *29:14 10.265 
3 *29:14 *29:16 8.52 
4 *29:16 *29:18 2.145 
5 *29:18 *144:B 7.845 
6 *29:18 *156:B 6.825 
7 *29:16 *141:B 4.05 
8 *29:14 *143:A2 4.395 
9 *29:10 *158:A 2.41 
*END

*D_NET *30 0.00173082
*CONN
*I *167:A I *D sky130_fd_sc_hd__buf_2
*I *157:Y O *D sky130_fd_sc_hd__nor2_1
*CAP
1 *167:A 0.000764964
2 *157:Y 0.000764964
3 *167:A *168:A 0
4 *167:A *169:A 0
5 LED[2] *167:A 1.17114e-05
6 LED[3] *167:A 6.06899e-05
7 *154:A *167:A 0.000128491
*RES
1 *157:Y *167:A 20.265 
*END

*D_NET *31 0.00306909
*CONN
*I *168:A I *D sky130_fd_sc_hd__buf_2
*I *142:Y O *D sky130_fd_sc_hd__xnor2_1
*CAP
1 *168:A 0.000705909
2 *142:Y 0.000705909
3 *168:A *144:D 0.000568667
4 *168:A *37:12 0
5 *168:A *38:10 0.00012967
6 *168:A *38:14 4.11112e-05
7 *148:B *168:A 0.000291372
8 *167:A *168:A 0
9 *21:43 *168:A 0.000626456
*RES
1 *142:Y *168:A 25.98 
*END

*D_NET *32 0.00491569
*CONN
*I *169:A I *D sky130_fd_sc_hd__buf_2
*I *146:X O *D sky130_fd_sc_hd__clkbuf_1
*CAP
1 *169:A 0.00111433
2 *146:X 0.00111433
3 *169:A *144:D 0.0010916
4 *169:A *170:A 0.000150872
5 *169:A *172:A 0.000217981
6 *169:A *173:A 0.000277223
7 *148:B *169:A 0
8 *149:A *169:A 3.04704e-05
9 *149:B *169:A 0.000270134
10 *154:A *169:A 0
11 *155:B *169:A 0.00012657
12 *157:B *169:A 0.000522176
13 *167:A *169:A 0
*RES
1 *146:X *169:A 34.47 
*END

*D_NET *33 0.00364714
*CONN
*I *170:A I *D sky130_fd_sc_hd__buf_2
*I *149:Y O *D sky130_fd_sc_hd__nor2_1
*CAP
1 *170:A 0.0012884
2 *149:Y 0.0012884
3 *170:A *172:A 7.04021e-05
4 *170:A *173:A 1.71034e-05
5 LED[4] *170:A 1.17114e-05
6 LED[5] *170:A 6.06899e-05
7 *149:A *170:A 0.00016031
8 *149:B *170:A 0.000196761
9 *154:A *170:A 8.11134e-05
10 *155:B *170:A 5.07419e-05
11 *157:B *170:A 0
12 *169:A *170:A 0.000150872
13 *21:12 *170:A 0.00027064
*RES
1 *149:Y *170:A 26.79 
*END

*D_NET *34 0.00176421
*CONN
*I *171:A I *D sky130_fd_sc_hd__buf_2
*I *150:Y O *D sky130_fd_sc_hd__xnor2_1
*CAP
1 *171:A 0.000602087
2 *150:Y 0.000602087
3 *171:A *41:19 4.85381e-05
4 *156:B *171:A 0.000309612
5 *157:B *171:A 0.000201885
*RES
1 *150:Y *171:A 12.545 
*END

*D_NET *35 0.0015512
*CONN
*I *172:A I *D sky130_fd_sc_hd__buf_2
*I *154:X O *D sky130_fd_sc_hd__clkbuf_1
*CAP
1 *172:A 0.000421109
2 *154:X 0.000421109
3 *172:A *173:A 7.89611e-05
4 *148:B *172:A 0
5 *157:B *172:A 0.000118527
6 *169:A *172:A 0.000217981
7 *170:A *172:A 7.04021e-05
8 *21:12 *172:A 0.000223108
*RES
1 *154:X *172:A 16.44 
*END

*D_NET *36 0.00112823
*CONN
*I *173:A I *D sky130_fd_sc_hd__clkbuf_4
*I *155:X O *D sky130_fd_sc_hd__xor2_1
*CAP
1 *173:A 0.000377472
2 *155:X 0.000377472
3 *169:A *173:A 0.000277223
4 *170:A *173:A 1.71034e-05
5 *172:A *173:A 7.89611e-05
*RES
1 *155:X *173:A 12.735 
*END

*D_NET *37 0.00741462
*CONN
*I *143:A1 I *D sky130_fd_sc_hd__o31a_1
*I *141:A I *D sky130_fd_sc_hd__nor2_1
*I *144:A I *D sky130_fd_sc_hd__or4_2
*I *156:A I *D sky130_fd_sc_hd__and2_1
*I *160:X O *D sky130_fd_sc_hd__buf_1
*CAP
1 *143:A1 0
2 *141:A 0
3 *144:A 0.000218386
4 *156:A 0.000324139
5 *160:X 0.000721847
6 *37:24 0.000648785
7 *37:20 0.000503193
8 *37:12 0.00111878
9 *144:A *142:A 4.66108e-05
10 *144:A *144:C 0.00027042
11 *156:A *42:10 7.63282e-05
12 *37:12 *38:10 7.26551e-05
13 *37:20 *39:14 4.08514e-05
14 *37:20 *40:10 0
15 *37:20 *40:36 6.81237e-05
16 *37:24 *148:A 0.000157888
17 *37:24 *40:36 1.71013e-05
18 *142:B *37:24 1.15688e-05
19 *143:A2 *37:20 4.66108e-05
20 *144:B *144:A 0.000210605
21 *144:B *37:24 0.000116158
22 *145:A_N *37:20 1.08758e-05
23 *149:A *156:A 0
24 *153:A *37:12 0.000181376
25 *158:A *37:12 4.66108e-05
26 *168:A *37:12 0
27 *23:10 *156:A 0
28 *29:10 *37:12 0.000845037
29 *29:14 *37:12 0.000718789
30 *29:16 *37:12 2.92496e-05
31 *29:16 *37:20 0.000728608
32 *29:18 *37:20 9.50342e-06
33 *29:18 *37:24 0.000174519
*RES
1 *160:X *37:12 22.415 
2 *37:12 *37:20 11.675 
3 *37:20 *37:24 5.675 
4 *37:24 *156:A 10.445 
5 *37:24 *144:A 6.67 
6 *37:20 *141:A 3.6 
7 *37:12 *143:A1 1.6 
*END

*D_NET *38 0.00535875
*CONN
*I *143:A3 I *D sky130_fd_sc_hd__o31a_1
*I *144:C I *D sky130_fd_sc_hd__or4_2
*I *142:A I *D sky130_fd_sc_hd__xnor2_1
*I *161:X O *D sky130_fd_sc_hd__buf_1
*CAP
1 *143:A3 0
2 *144:C 0.000116331
3 *142:A 2.42333e-05
4 *161:X 0.0010483
5 *38:14 0.000466887
6 *38:10 0.00137463
7 *144:A *142:A 4.66108e-05
8 *144:A *144:C 0.00027042
9 *148:B *38:14 0.000183987
10 *153:A *38:10 0.00017354
11 *153:A *38:14 0.000651209
12 *155:B *38:14 0.000414016
13 *168:A *38:10 0.00012967
14 *168:A *38:14 4.11112e-05
15 *21:43 *38:14 0.000345146
16 *37:12 *38:10 7.26551e-05
*RES
1 *161:X *38:10 17.04 
2 *38:10 *38:14 14.345 
3 *38:14 *142:A 2.05 
4 *38:14 *144:C 4.12 
5 *38:10 *143:A3 3.6 
*END

*D_NET *39 0.00479984
*CONN
*I *144:D I *D sky130_fd_sc_hd__or4_2
*I *143:B1 I *D sky130_fd_sc_hd__o31a_1
*I *162:X O *D sky130_fd_sc_hd__clkbuf_1
*CAP
1 *144:D 0.000430583
2 *143:B1 0
3 *162:X 0.000771169
4 *39:14 0.00120175
5 *143:A2 *39:14 1.34503e-05
6 *145:A_N *39:14 0.000309607
7 *146:A *39:14 0.000223726
8 *148:B *144:D 2.46007e-05
9 *168:A *144:D 0.000568667
10 *169:A *144:D 0.0010916
11 *21:43 *39:14 3.09354e-05
12 *21:49 *39:14 9.28985e-05
13 *37:20 *39:14 4.08514e-05
*RES
1 *162:X *39:14 13.66 
2 *39:14 *143:B1 1.6 
3 *39:14 *144:D 19.685 
*END

*D_NET *40 0.00699762
*CONN
*I *151:A I *D sky130_fd_sc_hd__or4_1
*I *148:A I *D sky130_fd_sc_hd__and2_1
*I *147:A I *D sky130_fd_sc_hd__nor2_1
*I *152:A1 I *D sky130_fd_sc_hd__o31ai_1
*I *163:X O *D sky130_fd_sc_hd__buf_1
*CAP
1 *151:A 0.00021004
2 *148:A 0.000428248
3 *147:A 0.000340597
4 *152:A1 0
5 *163:X 0.000607406
6 *40:36 0.000867588
7 *40:10 0.000874973
8 *40:6 0.00137108
9 *148:A *155:A 0.000162332
10 *148:A *42:10 0
11 *151:A *151:C 0.000268492
12 *40:10 *152:B1 0.00113843
13 *40:36 *152:B1 0
14 *40:36 *42:10 0
15 *141:B *151:A 4.66108e-05
16 *142:B *148:A 0
17 *149:B *148:A 0
18 *155:B *148:A 0
19 *160:A *147:A 0
20 *21:16 *151:A 8.40269e-05
21 *23:10 *147:A 8.35068e-05
22 *29:10 *147:A 0.00027117
23 *29:14 *147:A 0
24 *29:14 *40:10 0
25 *37:20 *40:10 0
26 *37:20 *40:36 6.81237e-05
27 *37:24 *148:A 0.000157888
28 *37:24 *40:36 1.71013e-05
*RES
1 *163:X *40:6 7.915 
2 *40:6 *40:10 15.11 
3 *40:10 *152:A1 3.6 
4 *40:10 *147:A 9.84 
5 *40:6 *40:36 5.375 
6 *40:36 *148:A 11.61 
7 *40:36 *151:A 7.62 
*END

*D_NET *41 0.0052185
*CONN
*I *152:A2 I *D sky130_fd_sc_hd__o31ai_1
*I *151:B I *D sky130_fd_sc_hd__or4_1
*I *150:A I *D sky130_fd_sc_hd__xnor2_1
*I *164:X O *D sky130_fd_sc_hd__buf_1
*CAP
1 *152:A2 0.000461225
2 *151:B 0.000316548
3 *150:A 0
4 *164:X 0.00029728
5 *41:19 0.00100406
6 *41:8 0.000523565
7 *151:B *151:C 0.000564013
8 *152:A2 *152:B1 0.00119528
9 *41:19 *152:B1 2.14129e-05
10 *41:19 *42:10 0.000187766
11 *153:B *152:A2 0.0003175
12 *171:A *41:19 4.85381e-05
13 *21:43 *152:A2 0.000160651
14 *23:10 *152:A2 0
15 *23:10 *41:19 0
16 *25:8 *151:B 0.000120655
*RES
1 *164:X *41:8 5.77 
2 *41:8 *150:A 1.6 
3 *41:8 *41:19 6.575 
4 *41:19 *151:B 9.585 
5 *41:19 *152:A2 17.4975 
*END

*D_NET *42 0.00718723
*CONN
*I *152:B1 I *D sky130_fd_sc_hd__o31ai_1
*I *151:C I *D sky130_fd_sc_hd__or4_1
*I *165:X O *D sky130_fd_sc_hd__buf_1
*CAP
1 *152:B1 0.000417898
2 *151:C 0.000190538
3 *165:X 0.000846554
4 *42:10 0.00145499
5 *42:10 *155:A 0.000540279
6 *141:B *151:C 4.66108e-05
7 *148:A *42:10 0
8 *149:A *42:10 0
9 *149:B *42:10 0.000137578
10 *151:A *151:C 0.000268492
11 *151:B *151:C 0.000564013
12 *152:A2 *152:B1 0.00119528
13 *152:A3 *152:B1 2.20014e-05
14 *153:B *152:B1 5.85516e-05
15 *156:A *42:10 7.63282e-05
16 *21:16 *151:C 2.05056e-05
17 *23:10 *152:B1 0
18 *23:10 *42:10 0
19 *40:10 *152:B1 0.00113843
20 *40:36 *152:B1 0
21 *40:36 *42:10 0
22 *41:19 *152:B1 2.14129e-05
23 *41:19 *42:10 0.000187766
*RES
1 *165:X *42:10 17.325 
2 *42:10 *151:C 9.225 
3 *42:10 *152:B1 19.47 
*END

*D_NET *43 0.00164062
*CONN
*I *155:A I *D sky130_fd_sc_hd__xor2_1
*I *166:X O *D sky130_fd_sc_hd__clkbuf_1
*CAP
1 *155:A 0.000407
2 *166:X 0.000407
3 *148:A *155:A 0.000162332
4 *148:B *155:A 0.000124007
5 *155:B *155:A 0
6 *42:10 *155:A 0.000540279
*RES
1 *166:X *155:A 16.095 
*END

*D_NET *44 0.000410793
*CONN
*I *174:A I *D sky130_fd_sc_hd__buf_2
*I *158:X O *D sky130_fd_sc_hd__clkbuf_1
*CAP
1 *174:A 0.000196113
2 *158:X 0.000196113
3 *158:A *174:A 1.85674e-05
*RES
1 *158:X *174:A 6.335 
*END
