*SPEF "ieee 1481-1999"
*DESIGN "twos_complement"
*DATE "14:21:43 Sunday April 27, 2025"
*VENDOR "The OpenROAD Project"
*PROGRAM "OpenROAD"
*VERSION "b16bda7e82721d10566ff7e2b68f1ff0be9f9e38"
*DESIGN_FLOW "NAME_SCOPE LOCAL" "PIN_CAP NONE"
*DIVIDER /
*DELIMITER :
*BUS_DELIMITER []
*T_UNIT 1 NS
*C_UNIT 1 PF
*R_UNIT 1 OHM
*L_UNIT 1 HENRY

*NAME_MAP
*1 LED[0]
*2 LED[1]
*3 LED[2]
*4 LED[3]
*5 LED[4]
*6 LED[5]
*7 LED[6]
*8 LED[7]
*9 SW[0]
*10 SW[1]
*11 SW[2]
*12 SW[3]
*13 SW[4]
*14 SW[5]
*15 SW[6]
*16 SW[7]
*19 _00_
*20 _01_
*21 _02_
*22 _03_
*23 _04_
*24 _05_
*25 _06_
*26 _07_
*27 _08_
*28 _09_
*29 net1
*30 net10
*31 net11
*32 net12
*33 net13
*34 net14
*35 net15
*36 net16
*37 net2
*38 net3
*39 net4
*40 net5
*41 net6
*42 net7
*43 net8
*44 net9
*45 FILLER_0_0_21
*46 FILLER_0_0_29
*47 FILLER_0_0_37
*48 FILLER_0_0_9
*49 FILLER_0_10_18
*50 FILLER_0_10_26
*51 FILLER_0_10_29
*52 FILLER_0_10_41
*53 FILLER_0_10_6
*54 FILLER_0_11_15
*55 FILLER_0_11_24
*56 FILLER_0_11_3
*57 FILLER_0_11_36
*58 FILLER_0_12_14
*59 FILLER_0_12_26
*60 FILLER_0_12_29
*61 FILLER_0_12_34
*62 FILLER_0_12_9
*63 FILLER_0_1_12
*64 FILLER_0_1_24
*65 FILLER_0_1_3
*66 FILLER_0_1_33
*67 FILLER_0_1_45
*68 FILLER_0_2_15
*69 FILLER_0_2_27
*70 FILLER_0_2_29
*71 FILLER_0_2_3
*72 FILLER_0_2_37
*73 FILLER_0_2_45
*74 FILLER_0_3_12
*75 FILLER_0_3_25
*76 FILLER_0_3_37
*77 FILLER_0_3_43
*78 FILLER_0_3_6
*79 FILLER_0_4_15
*80 FILLER_0_4_27
*81 FILLER_0_4_3
*82 FILLER_0_4_32
*83 FILLER_0_4_41
*84 FILLER_0_5_18
*85 FILLER_0_5_30
*86 FILLER_0_5_42
*87 FILLER_0_5_6
*88 FILLER_0_6_15
*89 FILLER_0_6_27
*90 FILLER_0_6_29
*91 FILLER_0_6_3
*92 FILLER_0_6_37
*93 FILLER_0_6_41
*94 FILLER_0_6_47
*95 FILLER_0_7_15
*96 FILLER_0_7_27
*97 FILLER_0_7_3
*98 FILLER_0_7_39
*99 FILLER_0_7_47
*100 FILLER_0_8_14
*101 FILLER_0_8_22
*102 FILLER_0_8_36
*103 FILLER_0_8_6
*104 FILLER_0_9_20
*105 FILLER_0_9_3
*106 FILLER_0_9_32
*107 FILLER_0_9_44
*108 PHY_EDGE_ROW_0_Left_13
*109 PHY_EDGE_ROW_0_Right_0
*110 PHY_EDGE_ROW_10_Left_23
*111 PHY_EDGE_ROW_10_Right_10
*112 PHY_EDGE_ROW_11_Left_24
*113 PHY_EDGE_ROW_11_Right_11
*114 PHY_EDGE_ROW_12_Left_25
*115 PHY_EDGE_ROW_12_Right_12
*116 PHY_EDGE_ROW_1_Left_14
*117 PHY_EDGE_ROW_1_Right_1
*118 PHY_EDGE_ROW_2_Left_15
*119 PHY_EDGE_ROW_2_Right_2
*120 PHY_EDGE_ROW_3_Left_16
*121 PHY_EDGE_ROW_3_Right_3
*122 PHY_EDGE_ROW_4_Left_17
*123 PHY_EDGE_ROW_4_Right_4
*124 PHY_EDGE_ROW_5_Left_18
*125 PHY_EDGE_ROW_5_Right_5
*126 PHY_EDGE_ROW_6_Left_19
*127 PHY_EDGE_ROW_6_Right_6
*128 PHY_EDGE_ROW_7_Left_20
*129 PHY_EDGE_ROW_7_Right_7
*130 PHY_EDGE_ROW_8_Left_21
*131 PHY_EDGE_ROW_8_Right_8
*132 PHY_EDGE_ROW_9_Left_22
*133 PHY_EDGE_ROW_9_Right_9
*134 TAP_TAPCELL_ROW_0_26
*135 TAP_TAPCELL_ROW_10_31
*136 TAP_TAPCELL_ROW_12_32
*137 TAP_TAPCELL_ROW_2_27
*138 TAP_TAPCELL_ROW_4_28
*139 TAP_TAPCELL_ROW_6_29
*140 TAP_TAPCELL_ROW_8_30
*141 _10_
*142 _11_
*143 _12_
*144 _13_
*145 _14_
*146 _15_
*147 _16_
*148 _17_
*149 _18_
*150 _19_
*151 _20_
*152 _21_
*153 _22_
*154 _23_
*155 _24_
*156 _25_
*157 _26_
*158 _27_
*159 input1
*160 input2
*161 input3
*162 input4
*163 input5
*164 input6
*165 input7
*166 input8
*167 output10
*168 output11
*169 output12
*170 output13
*171 output14
*172 output15
*173 output16
*174 output9

*PORTS
LED[0] O
LED[1] O
LED[2] O
LED[3] O
LED[4] O
LED[5] O
LED[6] O
LED[7] O
SW[0] I
SW[1] I
SW[2] I
SW[3] I
SW[4] I
SW[5] I
SW[6] I
SW[7] I

*D_NET *1 0.00123536
*CONN
*P LED[0] O
*I *174:X O *D sky130_fd_sc_hd__buf_2
*CAP
1 LED[0] 0.00029892
2 *174:X 0.000318757
3 *1:8 0.000617678
4 LED[0] LED[1] 0
*RES
1 *174:X *1:8 44.6596 
2 *1:8 LED[0] 9.10133 
*END

*D_NET *2 0.00046494
*CONN
*P LED[1] O
*I *167:X O *D sky130_fd_sc_hd__buf_2
*CAP
1 LED[1] 0.00023247
2 *167:X 0.00023247
3 LED[1] LED[2] 0
4 LED[0] LED[1] 0
*RES
1 *167:X LED[1] 47.0789 
*END

*D_NET *3 0.000482147
*CONN
*P LED[2] O
*I *168:X O *D sky130_fd_sc_hd__buf_2
*CAP
1 LED[2] 0.000234702
2 *168:X 0.000234702
3 LED[2] LED[3] 0
4 LED[2] *30:12 1.27424e-05
5 LED[1] LED[2] 0
*RES
1 *168:X LED[2] 47.0789 
*END

*D_NET *4 0.000739069
*CONN
*P LED[3] O
*I *169:X O *D sky130_fd_sc_hd__buf_2
*CAP
1 LED[3] 0.000273007
2 *169:X 0.000273007
3 LED[3] LED[4] 0
4 LED[3] *27:12 0.00012758
5 LED[3] *30:12 6.54744e-05
6 LED[2] LED[3] 0
*RES
1 *169:X LED[3] 48.4875 
*END

*D_NET *5 0.000489522
*CONN
*P LED[4] O
*I *170:X O *D sky130_fd_sc_hd__buf_2
*CAP
1 LED[4] 0.000227065
2 *170:X 0.000227065
3 LED[4] LED[5] 0
4 LED[4] *27:12 2.26497e-05
5 LED[4] *33:12 1.27424e-05
6 LED[3] LED[4] 0
*RES
1 *170:X LED[4] 47.0789 
*END

*D_NET *6 0.000647066
*CONN
*P LED[5] O
*I *171:X O *D sky130_fd_sc_hd__buf_2
*CAP
1 LED[5] 0.000290796
2 *171:X 0.000290796
3 LED[5] LED[6] 0
4 LED[5] *33:12 6.54744e-05
5 LED[4] LED[5] 0
*RES
1 *171:X LED[5] 48.4875 
*END

*D_NET *7 0.000877783
*CONN
*P LED[6] O
*I *172:X O *D sky130_fd_sc_hd__buf_2
*CAP
1 LED[6] 0.000438891
2 *172:X 0.000438891
3 LED[6] LED[7] 0
4 LED[5] LED[6] 0
*RES
1 *172:X LED[6] 47.68 
*END

*D_NET *8 0.00110166
*CONN
*P LED[7] O
*I *173:X O *D sky130_fd_sc_hd__clkbuf_4
*CAP
1 LED[7] 0.000175108
2 *173:X 0.000375724
3 *8:8 0.000550832
4 LED[6] LED[7] 0
*RES
1 *173:X *8:8 45.7161 
2 *8:8 LED[7] 8.672 
*END

*D_NET *9 0.00114897
*CONN
*P SW[0] I
*I *159:A I *D sky130_fd_sc_hd__buf_1
*CAP
1 SW[0] 0.000574485
2 *159:A 0
3 *9:11 0.000574485
4 *9:11 *147:B 0
5 *9:11 *10:19 0
*RES
1 SW[0] *9:11 31.4739 
2 *9:11 *159:A 23 
*END

*D_NET *10 0.000859669
*CONN
*P SW[1] I
*I *160:A I *D sky130_fd_sc_hd__buf_1
*CAP
1 SW[1] 0.00041832
2 *160:A 0
3 *10:19 0.00041832
4 *10:19 *147:A 0
5 *10:19 *161:A 0
6 *10:19 *29:10 2.30292e-05
7 *9:11 *10:19 0
*RES
1 SW[1] *10:19 28.7327 
2 *10:19 *160:A 23 
*END

*D_NET *11 0.000615123
*CONN
*P SW[2] I
*I *161:A I *D sky130_fd_sc_hd__buf_1
*CAP
1 SW[2] 0.000307562
2 *161:A 0.000307562
3 *161:A *12:17 0
4 *10:19 *161:A 0
*RES
1 SW[2] *161:A 49.8062 
*END

*D_NET *12 0.000742726
*CONN
*P SW[3] I
*I *162:A I *D sky130_fd_sc_hd__clkbuf_1
*CAP
1 SW[3] 0.000371363
2 *162:A 0
3 *12:17 0.000371363
4 *12:17 *13:17 0
5 *12:17 *22:12 0
6 *161:A *12:17 0
*RES
1 SW[3] *12:17 28.2148 
2 *12:17 *162:A 23 
*END

*D_NET *13 0.000650175
*CONN
*P SW[4] I
*I *163:A I *D sky130_fd_sc_hd__buf_1
*CAP
1 SW[4] 0.000325087
2 *163:A 0
3 *13:17 0.000325087
4 *13:17 *14:17 0
5 *13:17 *22:12 0
6 *12:17 *13:17 0
*RES
1 SW[4] *13:17 27.1584 
2 *13:17 *163:A 23 
*END

*D_NET *14 0.000761607
*CONN
*P SW[5] I
*I *164:A I *D sky130_fd_sc_hd__buf_1
*CAP
1 SW[5] 0.000380803
2 *164:A 0
3 *14:17 0.000380803
4 *14:17 *165:A 0
5 *14:17 *22:12 0
6 *13:17 *14:17 0
*RES
1 SW[5] *14:17 28.567 
2 *14:17 *164:A 23 
*END

*D_NET *15 0.000603153
*CONN
*P SW[6] I
*I *165:A I *D sky130_fd_sc_hd__buf_1
*CAP
1 SW[6] 0.000301577
2 *165:A 0.000301577
3 *165:A *16:11 0
4 *14:17 *165:A 0
*RES
1 SW[6] *165:A 49.8062 
*END

*D_NET *16 0.00130197
*CONN
*P SW[7] I
*I *166:A I *D sky130_fd_sc_hd__clkbuf_1
*CAP
1 SW[7] 0.000650983
2 *166:A 0
3 *16:11 0.000650983
4 *165:A *16:11 0
*RES
1 SW[7] *16:11 32.0837 
2 *16:11 *166:A 23 
*END

*D_NET *19 0.00274108
*CONN
*I *157:A I *D sky130_fd_sc_hd__nor2_1
*I *142:B I *D sky130_fd_sc_hd__xnor2_1
*I *141:Y O *D sky130_fd_sc_hd__nor2_1
*CAP
1 *157:A 0.00035259
2 *142:B 0.000201797
3 *141:Y 0
4 *19:6 0.000554387
5 *142:B *144:B 0.000136486
6 *142:B *148:A 0
7 *142:B *155:B 0.000473878
8 *142:B *29:16 8.62876e-05
9 *142:B *29:18 0.000216721
10 *142:B *37:24 1.22906e-05
11 *157:A *155:B 1.14452e-05
12 *157:A *25:25 0.000346485
13 *157:A *29:16 0.000348716
*RES
1 *141:Y *19:6 38 
2 *19:6 *142:B 44.4836 
3 *19:6 *157:A 46.2029 
*END

*D_NET *20 0.000682902
*CONN
*I *145:A_N I *D sky130_fd_sc_hd__and2b_1
*I *143:X O *D sky130_fd_sc_hd__o31a_1
*CAP
1 *145:A_N 0.000159025
2 *143:X 0.000159025
3 *145:A_N *37:20 1.24376e-05
4 *145:A_N *39:14 0.000352415
*RES
1 *143:X *145:A_N 49.9564 
*END

*D_NET *21 0.0098069
*CONN
*I *151:D I *D sky130_fd_sc_hd__or4_1
*I *145:B I *D sky130_fd_sc_hd__and2b_1
*I *147:B I *D sky130_fd_sc_hd__nor2_1
*I *152:A3 I *D sky130_fd_sc_hd__o31ai_1
*I *148:B I *D sky130_fd_sc_hd__and2_1
*I *144:X O *D sky130_fd_sc_hd__or4_2
*CAP
1 *151:D 0
2 *145:B 0
3 *147:B 0.000158378
4 *152:A3 0.00024026
5 *148:B 0
6 *144:X 0.000128949
7 *21:49 0.000808446
8 *21:43 0.000497611
9 *21:39 0.00111849
10 *21:24 0.000718544
11 *21:16 0.00192568
12 *21:12 0.000253821
13 *21:8 0.000206318
14 *147:B *23:10 0.000192413
15 *152:A3 *26:10 5.56279e-05
16 *152:A3 *42:25 2.46906e-05
17 *21:8 *157:B 7.75329e-06
18 *21:8 *172:A 0.000148402
19 *21:8 *33:12 0.000323812
20 *21:12 *35:8 9.67842e-05
21 *21:16 *151:A 9.5877e-05
22 *21:16 *151:C 2.18409e-05
23 *21:24 *155:A 0
24 *21:24 *155:B 6.78463e-05
25 *21:24 *172:A 0
26 *21:24 *31:12 0.000348465
27 *21:24 *32:10 0
28 *21:24 *38:14 0.000196935
29 *21:24 *39:27 2.36844e-05
30 *21:24 *43:8 0.000141052
31 *21:39 *23:10 0
32 *21:39 *31:12 0.000750523
33 *21:39 *38:14 0.000372157
34 *21:39 *41:36 0.000192077
35 *21:43 *39:14 2.83443e-05
36 *21:49 *23:10 0.000560173
37 *21:49 *39:14 0.000101947
38 *9:11 *147:B 0
*RES
1 *144:X *21:8 42.3707 
2 *21:8 *21:12 16.5743 
3 *21:12 *21:16 17.5271 
4 *21:16 *21:24 31.1157 
5 *21:24 *148:B 23 
6 *21:16 *21:39 49.9064 
7 *21:39 *21:43 16.5743 
8 *21:43 *21:49 24.5907 
9 *21:49 *152:A3 41.9771 
10 *21:49 *147:B 41.3143 
11 *21:43 *145:B 23 
12 *21:12 *151:D 23 
*END

*D_NET *22 0.00293927
*CONN
*I *146:A I *D sky130_fd_sc_hd__clkbuf_1
*I *145:X O *D sky130_fd_sc_hd__and2b_1
*CAP
1 *146:A 0
2 *145:X 0.000326544
3 *22:12 0.00101977
4 *22:8 0.00134632
5 *22:8 *39:14 0.000246636
6 *22:12 *149:A 0
7 *22:12 *23:10 0
8 *12:17 *22:12 0
9 *13:17 *22:12 0
10 *14:17 *22:12 0
*RES
1 *145:X *22:8 42.9093 
2 *22:8 *22:12 33.8086 
3 *22:12 *146:A 23 
*END

*D_NET *23 0.00446148
*CONN
*I *150:B I *D sky130_fd_sc_hd__xnor2_1
*I *149:A I *D sky130_fd_sc_hd__nor2_1
*I *147:Y O *D sky130_fd_sc_hd__nor2_1
*CAP
1 *150:B 0
2 *149:A 0.000349169
3 *147:Y 8.16907e-05
4 *23:10 0.00154104
5 *23:8 0.00127357
6 *149:A *149:B 0.000146195
7 *149:A *32:6 3.18142e-05
8 *149:A *33:6 0.000188927
9 *149:A *37:32 0
10 *149:A *42:10 0
11 *23:8 *147:A 9.64943e-05
12 *23:10 *147:A 0
13 *23:10 *26:10 0
14 *23:10 *37:32 0
15 *23:10 *41:19 0
16 *23:10 *41:36 0
17 *23:10 *42:10 0
18 *23:10 *42:25 0
19 *147:B *23:10 0.000192413
20 *21:39 *23:10 0
21 *21:49 *23:10 0.000560173
22 *22:12 *149:A 0
23 *22:12 *23:10 0
*RES
1 *147:Y *23:8 39.0979 
2 *23:8 *23:10 24.795 
3 *23:10 *149:A 46.0993 
4 *23:10 *150:B 38 
*END

*D_NET *24 0.00127925
*CONN
*I *149:B I *D sky130_fd_sc_hd__nor2_1
*I *148:X O *D sky130_fd_sc_hd__and2_1
*CAP
1 *149:B 0.000126877
2 *148:X 0.000101541
3 *24:8 0.000228418
4 *149:B *32:6 0.000296781
5 *149:B *33:6 0.000215153
6 *24:8 *148:A 0
7 *24:8 *42:10 0.000164291
8 *149:A *149:B 0.000146195
*RES
1 *148:X *24:8 40.2579 
2 *24:8 *149:B 43.8621 
*END

*D_NET *25 0.00606434
*CONN
*I *153:A I *D sky130_fd_sc_hd__and2_1
*I *155:B I *D sky130_fd_sc_hd__xor2_1
*I *151:X O *D sky130_fd_sc_hd__or4_1
*CAP
1 *153:A 0
2 *155:B 0.000428268
3 *151:X 0.00011508
4 *25:25 0.000692426
5 *25:8 0.00123577
6 *155:B *148:A 0
7 *155:B *155:A 0
8 *155:B *32:6 0.000143655
9 *155:B *33:6 5.47808e-05
10 *155:B *38:14 0.000494041
11 *25:8 *151:B 0.000137651
12 *25:25 *153:B 0.000146195
13 *25:25 *27:6 0.000304058
14 *25:25 *29:16 0.000207968
15 *25:25 *37:12 0.000216721
16 *25:25 *38:10 0.000207507
17 *25:25 *38:14 0.000780559
18 *142:B *155:B 0.000473878
19 *157:A *155:B 1.14452e-05
20 *157:A *25:25 0.000346485
21 *21:24 *155:B 6.78463e-05
*RES
1 *151:X *25:8 39.5743 
2 *25:8 *155:B 49.2271 
3 *25:8 *25:25 36.4186 
4 *25:25 *153:A 23 
*END

*D_NET *26 0.00129195
*CONN
*I *153:B I *D sky130_fd_sc_hd__and2_1
*I *152:Y O *D sky130_fd_sc_hd__o31ai_1
*CAP
1 *153:B 5.89568e-05
2 *152:Y 0.000262496
3 *26:10 0.000321453
4 *26:10 *41:36 0.000380342
5 *26:10 *42:25 6.68765e-05
6 *152:A3 *26:10 5.56279e-05
7 *23:10 *26:10 0
8 *25:25 *153:B 0.000146195
*RES
1 *152:Y *26:10 44.0486 
2 *26:10 *153:B 39.5743 
*END

*D_NET *27 0.00393588
*CONN
*I *154:A I *D sky130_fd_sc_hd__clkbuf_1
*I *153:X O *D sky130_fd_sc_hd__and2_1
*CAP
1 *154:A 0
2 *153:X 0.00103578
3 *27:12 0.000601711
4 *27:6 0.00163749
5 *27:12 *157:B 0
6 *27:12 *30:12 0.000125906
7 *27:12 *32:10 0
8 *27:12 *33:12 8.07119e-05
9 LED[3] *27:12 0.00012758
10 LED[4] *27:12 2.26497e-05
11 *25:25 *27:6 0.000304058
*RES
1 *153:X *27:6 36.485 
2 *27:6 *27:12 43.5264 
3 *27:12 *154:A 23 
*END

*D_NET *28 0.00264063
*CONN
*I *157:B I *D sky130_fd_sc_hd__nor2_1
*I *156:X O *D sky130_fd_sc_hd__and2_1
*CAP
1 *157:B 0.00026553
2 *156:X 0.00042579
3 *28:8 0.00069132
4 *157:B *172:A 0.000141888
5 *157:B *32:10 0.00062643
6 *157:B *33:12 0
7 *28:8 *156:B 0.000267167
8 *28:8 *34:8 0.000214748
9 *21:8 *157:B 7.75329e-06
10 *27:12 *157:B 0
*RES
1 *156:X *28:8 45.7679 
2 *28:8 *157:B 46.2443 
*END

*D_NET *29 0.0090748
*CONN
*I *158:A I *D sky130_fd_sc_hd__clkbuf_1
*I *143:A2 I *D sky130_fd_sc_hd__o31a_1
*I *141:B I *D sky130_fd_sc_hd__nor2_1
*I *156:B I *D sky130_fd_sc_hd__and2_1
*I *144:B I *D sky130_fd_sc_hd__or4_2
*I *159:X O *D sky130_fd_sc_hd__buf_1
*CAP
1 *158:A 4.72673e-05
2 *143:A2 6.90882e-05
3 *141:B 2.32701e-05
4 *156:B 0.000127773
5 *144:B 0.000358176
6 *159:X 0.00035616
7 *29:18 0.000564574
8 *29:16 0.000384971
9 *29:14 0.000786147
10 *29:10 0.00083741
11 *141:B *151:A 5.3304e-05
12 *141:B *151:C 5.3304e-05
13 *143:A2 *37:20 5.3304e-05
14 *143:A2 *39:14 1.40958e-05
15 *144:B *144:A 0.000231015
16 *144:B *37:24 0.000138718
17 *156:B *34:8 0.000352421
18 *158:A *37:8 5.3304e-05
19 *158:A *44:8 2.02517e-05
20 *29:10 *147:A 0.000296854
21 *29:10 *37:8 0.000977215
22 *29:14 *147:A 0
23 *29:14 *37:12 0.000861723
24 *29:14 *40:10 0
25 *29:16 *37:12 3.47781e-05
26 *29:16 *37:20 0.000873044
27 *29:18 *37:20 1.14452e-05
28 *29:18 *37:24 0.000208818
29 *142:B *144:B 0.000136486
30 *142:B *29:16 8.62876e-05
31 *142:B *29:18 0.000216721
32 *157:A *29:16 0.000348716
33 *10:19 *29:10 2.30292e-05
34 *25:25 *29:16 0.000207968
35 *28:8 *156:B 0.000267167
*RES
1 *159:X *29:10 35.6979 
2 *29:10 *29:14 26.4136 
3 *29:14 *29:16 11.7657 
4 *29:16 *29:18 2.96214 
5 *29:18 *144:B 43.8621 
6 *29:18 *156:B 42.4536 
7 *29:16 *141:B 38.6214 
8 *29:14 *143:A2 39.0979 
9 *29:10 *158:A 24.1186 
*END

*D_NET *30 0.00207371
*CONN
*I *167:A I *D sky130_fd_sc_hd__buf_2
*I *157:Y O *D sky130_fd_sc_hd__nor2_1
*CAP
1 *167:A 0
2 *157:Y 0.000161279
3 *30:12 0.000773516
4 *30:8 0.000934795
5 *30:12 *31:12 0
6 *30:12 *32:10 0
7 LED[2] *30:12 1.27424e-05
8 LED[3] *30:12 6.54744e-05
9 *27:12 *30:12 0.000125906
*RES
1 *157:Y *30:8 40.0507 
2 *30:8 *30:12 30.9914 
3 *30:12 *167:A 23 
*END

*D_NET *31 0.0037788
*CONN
*I *168:A I *D sky130_fd_sc_hd__buf_2
*I *142:Y O *D sky130_fd_sc_hd__xnor2_1
*CAP
1 *168:A 0
2 *142:Y 0
3 *31:12 0.000950193
4 *31:6 0.000950193
5 *31:12 *37:12 0
6 *31:12 *38:10 0.000127478
7 *31:12 *38:14 3.96053e-05
8 *31:12 *39:27 0.000612339
9 *21:24 *31:12 0.000348465
10 *21:39 *31:12 0.000750523
11 *30:12 *31:12 0
*RES
1 *142:Y *31:6 38 
2 *31:6 *31:12 40.9343 
3 *31:12 *168:A 23 
*END

*D_NET *32 0.00596891
*CONN
*I *169:A I *D sky130_fd_sc_hd__buf_2
*I *146:X O *D sky130_fd_sc_hd__clkbuf_1
*CAP
1 *169:A 0.000154007
2 *146:X 0.000673084
3 *32:10 0.000759513
4 *32:6 0.00127859
5 *32:6 *33:6 0.000147906
6 *32:6 *36:10 0.00031495
7 *32:10 *172:A 0.000234096
8 *32:10 *39:27 0.00130808
9 *149:A *32:6 3.18142e-05
10 *149:B *32:6 0.000296781
11 *155:B *32:6 0.000143655
12 *157:B *32:10 0.00062643
13 *21:24 *32:10 0
14 *27:12 *32:10 0
15 *30:12 *32:10 0
*RES
1 *146:X *32:6 37.9143 
2 *32:6 *32:10 35.2171 
3 *32:10 *169:A 40.5271 
*END

*D_NET *33 0.00440892
*CONN
*I *170:A I *D sky130_fd_sc_hd__buf_2
*I *149:Y O *D sky130_fd_sc_hd__nor2_1
*CAP
1 *170:A 0
2 *149:Y 0.00114284
3 *33:12 0.000473967
4 *33:6 0.0016168
5 *33:6 *36:10 1.69296e-05
6 *33:12 *172:A 6.88819e-05
7 LED[4] *33:12 1.27424e-05
8 LED[5] *33:12 6.54744e-05
9 *149:A *33:6 0.000188927
10 *149:B *33:6 0.000215153
11 *155:B *33:6 5.47808e-05
12 *157:B *33:12 0
13 *21:8 *33:12 0.000323812
14 *27:12 *33:12 8.07119e-05
15 *32:6 *33:6 0.000147906
*RES
1 *149:Y *33:6 39.3436 
2 *33:6 *33:12 40.7093 
3 *33:12 *170:A 23 
*END

*D_NET *34 0.00217852
*CONN
*I *171:A I *D sky130_fd_sc_hd__buf_2
*I *150:Y O *D sky130_fd_sc_hd__xnor2_1
*CAP
1 *171:A 0
2 *150:Y 0.000779402
3 *34:8 0.000779402
4 *34:8 *41:19 5.25436e-05
5 *156:B *34:8 0.000352421
6 *28:8 *34:8 0.000214748
*RES
1 *150:Y *34:8 35.905 
2 *34:8 *171:A 23 
*END

*D_NET *35 0.00194211
*CONN
*I *172:A I *D sky130_fd_sc_hd__buf_2
*I *154:X O *D sky130_fd_sc_hd__clkbuf_1
*CAP
1 *172:A 0.000418658
2 *154:X 0.000164809
3 *35:8 0.000583467
4 *172:A *36:10 8.51225e-05
5 *157:B *172:A 0.000141888
6 *21:8 *172:A 0.000148402
7 *21:12 *35:8 9.67842e-05
8 *21:24 *172:A 0
9 *32:10 *172:A 0.000234096
10 *33:12 *172:A 6.88819e-05
*RES
1 *154:X *35:8 40.0507 
2 *35:8 *172:A 48.7093 
*END

*D_NET *36 0.00133674
*CONN
*I *173:A I *D sky130_fd_sc_hd__clkbuf_4
*I *155:X O *D sky130_fd_sc_hd__xor2_1
*CAP
1 *173:A 0
2 *155:X 0.000459869
3 *36:10 0.000459869
4 *172:A *36:10 8.51225e-05
5 *32:6 *36:10 0.00031495
6 *33:6 *36:10 1.69296e-05
*RES
1 *155:X *36:10 45.6436 
2 *36:10 *173:A 38 
*END

*D_NET *37 0.00909383
*CONN
*I *143:A1 I *D sky130_fd_sc_hd__o31a_1
*I *141:A I *D sky130_fd_sc_hd__nor2_1
*I *144:A I *D sky130_fd_sc_hd__or4_2
*I *156:A I *D sky130_fd_sc_hd__and2_1
*I *160:X O *D sky130_fd_sc_hd__buf_1
*CAP
1 *143:A1 0
2 *141:A 0
3 *144:A 0.000292701
4 *156:A 0
5 *160:X 0.000466118
6 *37:32 0.000395363
7 *37:24 0.000853943
8 *37:20 0.000703462
9 *37:12 0.000972761
10 *37:8 0.000901296
11 *144:A *142:A 5.3304e-05
12 *144:A *144:C 0.000308045
13 *37:12 *38:10 7.80251e-05
14 *37:20 *39:14 4.34973e-05
15 *37:20 *40:10 0
16 *37:20 *40:36 7.20415e-05
17 *37:24 *148:A 0.000168444
18 *37:24 *40:36 1.83667e-05
19 *37:32 *42:10 8.16459e-05
20 *142:B *37:24 1.22906e-05
21 *143:A2 *37:20 5.3304e-05
22 *144:B *144:A 0.000231015
23 *144:B *37:24 0.000138718
24 *145:A_N *37:20 1.24376e-05
25 *149:A *37:32 0
26 *158:A *37:8 5.3304e-05
27 *23:10 *37:32 0
28 *25:25 *37:12 0.000216721
29 *29:10 *37:8 0.000977215
30 *29:14 *37:12 0.000861723
31 *29:16 *37:12 3.47781e-05
32 *29:16 *37:20 0.000873044
33 *29:18 *37:20 1.14452e-05
34 *29:18 *37:24 0.000208818
35 *31:12 *37:12 0
*RES
1 *160:X *37:8 49.1029 
2 *37:8 *37:12 27.1179 
3 *37:12 *37:20 28.3607 
4 *37:20 *37:24 20.075 
5 *37:24 *37:32 36.6907 
6 *37:32 *156:A 23 
7 *37:24 *144:A 30.0014 
8 *37:20 *141:A 38 
9 *37:12 *143:A1 23 
*END

*D_NET *38 0.00661613
*CONN
*I *143:A3 I *D sky130_fd_sc_hd__o31a_1
*I *144:C I *D sky130_fd_sc_hd__or4_2
*I *142:A I *D sky130_fd_sc_hd__xnor2_1
*I *161:X O *D sky130_fd_sc_hd__buf_1
*CAP
1 *143:A3 0
2 *144:C 0.000150146
3 *142:A 3.3646e-05
4 *161:X 0.00114236
5 *38:14 0.000680319
6 *38:10 0.000653085
7 *38:6 0.00129892
8 *144:A *142:A 5.3304e-05
9 *144:A *144:C 0.000308045
10 *155:B *38:14 0.000494041
11 *21:24 *38:14 0.000196935
12 *21:39 *38:14 0.000372157
13 *25:25 *38:10 0.000207507
14 *25:25 *38:14 0.000780559
15 *31:12 *38:10 0.000127478
16 *31:12 *38:14 3.96053e-05
17 *37:12 *38:10 7.80251e-05
*RES
1 *161:X *38:6 36.485 
2 *38:6 *38:10 20.075 
3 *38:10 *38:14 32.0479 
4 *38:14 *142:A 23.6214 
5 *38:14 *144:C 26.48 
6 *38:10 *143:A3 38 
*END

*D_NET *39 0.00586224
*CONN
*I *144:D I *D sky130_fd_sc_hd__or4_2
*I *143:B1 I *D sky130_fd_sc_hd__o31a_1
*I *162:X O *D sky130_fd_sc_hd__clkbuf_1
*CAP
1 *144:D 0
2 *143:B1 0
3 *162:X 0.000952122
4 *39:27 0.000613478
5 *39:14 0.0015656
6 *143:A2 *39:14 1.40958e-05
7 *145:A_N *39:14 0.000352415
8 *21:24 *39:27 2.36844e-05
9 *21:43 *39:14 2.83443e-05
10 *21:49 *39:14 0.000101947
11 *22:8 *39:14 0.000246636
12 *31:12 *39:27 0.000612339
13 *32:10 *39:27 0.00130808
14 *37:20 *39:14 4.34973e-05
*RES
1 *162:X *39:14 39.6543 
2 *39:14 *143:B1 23 
3 *39:14 *39:27 49.4507 
4 *39:27 *144:D 23 
*END

*D_NET *40 0.00862497
*CONN
*I *151:A I *D sky130_fd_sc_hd__or4_1
*I *148:A I *D sky130_fd_sc_hd__and2_1
*I *147:A I *D sky130_fd_sc_hd__nor2_1
*I *152:A1 I *D sky130_fd_sc_hd__o31ai_1
*I *163:X O *D sky130_fd_sc_hd__buf_1
*CAP
1 *151:A 0.000288906
2 *148:A 0.000555563
3 *147:A 0.000427496
4 *152:A1 0
5 *163:X 0.000734011
6 *40:36 0.00113628
7 *40:10 0.00111177
8 *40:6 0.0017101
9 *148:A *155:A 0.000194327
10 *148:A *42:10 0
11 *151:A *151:C 0.000300541
12 *40:10 *42:25 0.00136458
13 *40:36 *42:10 0
14 *40:36 *42:25 0
15 *141:B *151:A 5.3304e-05
16 *142:B *148:A 0
17 *155:B *148:A 0
18 *10:19 *147:A 0
19 *21:16 *151:A 9.5877e-05
20 *23:8 *147:A 9.64943e-05
21 *23:10 *147:A 0
22 *24:8 *148:A 0
23 *29:10 *147:A 0.000296854
24 *29:14 *147:A 0
25 *29:14 *40:10 0
26 *37:20 *40:10 0
27 *37:20 *40:36 7.20415e-05
28 *37:24 *148:A 0.000168444
29 *37:24 *40:36 1.83667e-05
*RES
1 *163:X *40:6 31.7207 
2 *40:6 *40:10 33.1043 
3 *40:10 *152:A1 38 
4 *40:10 *147:A 46.6171 
5 *40:6 *40:36 19.6607 
6 *40:36 *148:A 49.0614 
7 *40:36 *151:A 43.5514 
*END

*D_NET *41 0.0064215
*CONN
*I *152:A2 I *D sky130_fd_sc_hd__o31ai_1
*I *151:B I *D sky130_fd_sc_hd__or4_1
*I *150:A I *D sky130_fd_sc_hd__xnor2_1
*I *164:X O *D sky130_fd_sc_hd__buf_1
*CAP
1 *152:A2 0
2 *151:B 0.000416558
3 *150:A 0
4 *164:X 0.000360362
5 *41:36 0.00061827
6 *41:19 0.00130718
7 *41:8 0.000632709
8 *151:B *151:C 0.000642806
9 *41:19 *42:10 0.000225275
10 *41:19 *42:25 2.55642e-05
11 *41:36 *42:25 0.00143016
12 *21:39 *41:36 0.000192077
13 *23:10 *41:19 0
14 *23:10 *41:36 0
15 *25:8 *151:B 0.000137651
16 *26:10 *41:36 0.000380342
17 *34:8 *41:19 5.25436e-05
*RES
1 *164:X *41:8 28.7586 
2 *41:8 *150:A 23 
3 *41:8 *41:19 21.3179 
4 *41:19 *151:B 46.265 
5 *41:19 *41:36 34.1918 
6 *41:36 *152:A2 23 
*END

*D_NET *42 0.00887982
*CONN
*I *152:B1 I *D sky130_fd_sc_hd__o31ai_1
*I *151:C I *D sky130_fd_sc_hd__or4_1
*I *165:X O *D sky130_fd_sc_hd__buf_1
*CAP
1 *152:B1 0
2 *151:C 0.000274724
3 *165:X 0.000517462
4 *42:25 0.000593788
5 *42:10 0.0014061
6 *42:8 0.00105505
7 *42:8 *43:8 0.000631121
8 *141:B *151:C 5.3304e-05
9 *148:A *42:10 0
10 *149:A *42:10 0
11 *151:A *151:C 0.000300541
12 *151:B *151:C 0.000642806
13 *152:A3 *42:25 2.46906e-05
14 *21:16 *151:C 2.18409e-05
15 *23:10 *42:10 0
16 *23:10 *42:25 0
17 *24:8 *42:10 0.000164291
18 *26:10 *42:25 6.68765e-05
19 *37:32 *42:10 8.16459e-05
20 *40:10 *42:25 0.00136458
21 *40:36 *42:10 0
22 *40:36 *42:25 0
23 *41:19 *42:10 0.000225275
24 *41:19 *42:25 2.55642e-05
25 *41:36 *42:25 0.00143016
*RES
1 *165:X *42:8 46.2443 
2 *42:8 *42:10 10.7093 
3 *42:10 *151:C 45.7679 
4 *42:10 *42:25 36.9157 
5 *42:25 *152:B1 23 
*END

*D_NET *43 0.00195623
*CONN
*I *155:A I *D sky130_fd_sc_hd__xor2_1
*I *166:X O *D sky130_fd_sc_hd__clkbuf_1
*CAP
1 *155:A 0.000107742
2 *166:X 0.000387125
3 *43:8 0.000494867
4 *148:A *155:A 0.000194327
5 *155:B *155:A 0
6 *21:24 *155:A 0
7 *21:24 *43:8 0.000141052
8 *42:8 *43:8 0.000631121
*RES
1 *166:X *43:8 47.6736 
2 *43:8 *155:A 40.61 
*END

*D_NET *44 0.000461003
*CONN
*I *174:A I *D sky130_fd_sc_hd__buf_2
*I *158:X O *D sky130_fd_sc_hd__clkbuf_1
*CAP
1 *174:A 0
2 *158:X 0.000220375
3 *44:8 0.000220375
4 *158:A *44:8 2.02517e-05
*RES
1 *158:X *44:8 27.3293 
2 *44:8 *174:A 23 
*END
