*SPEF "ieee 1481-1999"
*DESIGN "twos_complement"
*DATE "14:21:44 Sunday April 27, 2025"
*VENDOR "The OpenROAD Project"
*PROGRAM "OpenROAD"
*VERSION "b16bda7e82721d10566ff7e2b68f1ff0be9f9e38"
*DESIGN_FLOW "NAME_SCOPE LOCAL" "PIN_CAP NONE"
*DIVIDER /
*DELIMITER :
*BUS_DELIMITER []
*T_UNIT 1 NS
*C_UNIT 1 PF
*R_UNIT 1 OHM
*L_UNIT 1 HENRY

*NAME_MAP
*1 LED[0]
*2 LED[1]
*3 LED[2]
*4 LED[3]
*5 LED[4]
*6 LED[5]
*7 LED[6]
*8 LED[7]
*9 SW[0]
*10 SW[1]
*11 SW[2]
*12 SW[3]
*13 SW[4]
*14 SW[5]
*15 SW[6]
*16 SW[7]
*19 _00_
*20 _01_
*21 _02_
*22 _03_
*23 _04_
*24 _05_
*25 _06_
*26 _07_
*27 _08_
*28 _09_
*29 net1
*30 net10
*31 net11
*32 net12
*33 net13
*34 net14
*35 net15
*36 net16
*37 net2
*38 net3
*39 net4
*40 net5
*41 net6
*42 net7
*43 net8
*44 net9
*45 FILLER_0_0_21
*46 FILLER_0_0_29
*47 FILLER_0_0_37
*48 FILLER_0_0_9
*49 FILLER_0_10_18
*50 FILLER_0_10_26
*51 FILLER_0_10_29
*52 FILLER_0_10_41
*53 FILLER_0_10_6
*54 FILLER_0_11_15
*55 FILLER_0_11_24
*56 FILLER_0_11_3
*57 FILLER_0_11_36
*58 FILLER_0_12_14
*59 FILLER_0_12_26
*60 FILLER_0_12_29
*61 FILLER_0_12_34
*62 FILLER_0_12_9
*63 FILLER_0_1_12
*64 FILLER_0_1_24
*65 FILLER_0_1_3
*66 FILLER_0_1_33
*67 FILLER_0_1_45
*68 FILLER_0_2_15
*69 FILLER_0_2_27
*70 FILLER_0_2_29
*71 FILLER_0_2_3
*72 FILLER_0_2_37
*73 FILLER_0_2_45
*74 FILLER_0_3_12
*75 FILLER_0_3_25
*76 FILLER_0_3_37
*77 FILLER_0_3_43
*78 FILLER_0_3_6
*79 FILLER_0_4_15
*80 FILLER_0_4_27
*81 FILLER_0_4_3
*82 FILLER_0_4_32
*83 FILLER_0_4_41
*84 FILLER_0_5_18
*85 FILLER_0_5_30
*86 FILLER_0_5_42
*87 FILLER_0_5_6
*88 FILLER_0_6_15
*89 FILLER_0_6_27
*90 FILLER_0_6_29
*91 FILLER_0_6_3
*92 FILLER_0_6_37
*93 FILLER_0_6_41
*94 FILLER_0_6_47
*95 FILLER_0_7_15
*96 FILLER_0_7_27
*97 FILLER_0_7_3
*98 FILLER_0_7_39
*99 FILLER_0_7_47
*100 FILLER_0_8_14
*101 FILLER_0_8_22
*102 FILLER_0_8_36
*103 FILLER_0_8_6
*104 FILLER_0_9_20
*105 FILLER_0_9_3
*106 FILLER_0_9_32
*107 FILLER_0_9_44
*108 PHY_EDGE_ROW_0_Left_13
*109 PHY_EDGE_ROW_0_Right_0
*110 PHY_EDGE_ROW_10_Left_23
*111 PHY_EDGE_ROW_10_Right_10
*112 PHY_EDGE_ROW_11_Left_24
*113 PHY_EDGE_ROW_11_Right_11
*114 PHY_EDGE_ROW_12_Left_25
*115 PHY_EDGE_ROW_12_Right_12
*116 PHY_EDGE_ROW_1_Left_14
*117 PHY_EDGE_ROW_1_Right_1
*118 PHY_EDGE_ROW_2_Left_15
*119 PHY_EDGE_ROW_2_Right_2
*120 PHY_EDGE_ROW_3_Left_16
*121 PHY_EDGE_ROW_3_Right_3
*122 PHY_EDGE_ROW_4_Left_17
*123 PHY_EDGE_ROW_4_Right_4
*124 PHY_EDGE_ROW_5_Left_18
*125 PHY_EDGE_ROW_5_Right_5
*126 PHY_EDGE_ROW_6_Left_19
*127 PHY_EDGE_ROW_6_Right_6
*128 PHY_EDGE_ROW_7_Left_20
*129 PHY_EDGE_ROW_7_Right_7
*130 PHY_EDGE_ROW_8_Left_21
*131 PHY_EDGE_ROW_8_Right_8
*132 PHY_EDGE_ROW_9_Left_22
*133 PHY_EDGE_ROW_9_Right_9
*134 TAP_TAPCELL_ROW_0_26
*135 TAP_TAPCELL_ROW_10_31
*136 TAP_TAPCELL_ROW_12_32
*137 TAP_TAPCELL_ROW_2_27
*138 TAP_TAPCELL_ROW_4_28
*139 TAP_TAPCELL_ROW_6_29
*140 TAP_TAPCELL_ROW_8_30
*141 _10_
*142 _11_
*143 _12_
*144 _13_
*145 _14_
*146 _15_
*147 _16_
*148 _17_
*149 _18_
*150 _19_
*151 _20_
*152 _21_
*153 _22_
*154 _23_
*155 _24_
*156 _25_
*157 _26_
*158 _27_
*159 input1
*160 input2
*161 input3
*162 input4
*163 input5
*164 input6
*165 input7
*166 input8
*167 output10
*168 output11
*169 output12
*170 output13
*171 output14
*172 output15
*173 output16
*174 output9

*PORTS
LED[0] O
LED[1] O
LED[2] O
LED[3] O
LED[4] O
LED[5] O
LED[6] O
LED[7] O
SW[0] I
SW[1] I
SW[2] I
SW[3] I
SW[4] I
SW[5] I
SW[6] I
SW[7] I

*D_NET *1 0.00116601
*CONN
*P LED[0] O
*I *174:X O *D sky130_fd_sc_hd__buf_2
*CAP
1 LED[0] 0.000583005
2 *174:X 0.000583005
3 LED[0] LED[1] 0
*RES
1 *174:X LED[0] 23.8754 
*END

*D_NET *2 0.000438356
*CONN
*P LED[1] O
*I *167:X O *D sky130_fd_sc_hd__buf_2
*CAP
1 LED[1] 0.000219178
2 *167:X 0.000219178
3 LED[1] LED[2] 0
4 LED[0] LED[1] 0
*RES
1 *167:X LED[1] 18.1229 
*END

*D_NET *3 0.000451624
*CONN
*P LED[2] O
*I *168:X O *D sky130_fd_sc_hd__buf_2
*CAP
1 LED[2] 0.000219714
2 *168:X 0.000219714
3 LED[2] LED[3] 0
4 LED[2] *167:A 1.21955e-05
5 LED[1] LED[2] 0
*RES
1 *168:X LED[2] 18.1229 
*END

*D_NET *4 0.000675847
*CONN
*P LED[3] O
*I *169:X O *D sky130_fd_sc_hd__buf_2
*CAP
1 LED[3] 0.000248866
2 *169:X 0.000248866
3 LED[3] LED[4] 0
4 LED[3] *167:A 6.27457e-05
5 LED[3] *27:12 0.000115369
6 LED[2] LED[3] 0
*RES
1 *169:X LED[3] 19.3371 
*END

*D_NET *5 0.000458273
*CONN
*P LED[4] O
*I *170:X O *D sky130_fd_sc_hd__buf_2
*CAP
1 LED[4] 0.00021273
2 *170:X 0.00021273
3 LED[4] LED[5] 0
4 LED[4] *27:12 2.06178e-05
5 LED[4] *33:12 1.21955e-05
6 LED[3] LED[4] 0
*RES
1 *170:X LED[4] 18.1229 
*END

*D_NET *6 0.000599297
*CONN
*P LED[5] O
*I *171:X O *D sky130_fd_sc_hd__buf_2
*CAP
1 LED[5] 0.000268276
2 *171:X 0.000268276
3 LED[5] LED[6] 0
4 LED[5] *33:12 6.27457e-05
5 LED[4] LED[5] 0
*RES
1 *171:X LED[5] 19.3371 
*END

*D_NET *7 0.000818937
*CONN
*P LED[6] O
*I *172:X O *D sky130_fd_sc_hd__buf_2
*CAP
1 LED[6] 0.000409468
2 *172:X 0.000409468
3 LED[6] LED[7] 0
4 LED[5] LED[6] 0
*RES
1 *172:X LED[6] 18.6273 
*END

*D_NET *8 0.00103775
*CONN
*P LED[7] O
*I *173:X O *D sky130_fd_sc_hd__clkbuf_4
*CAP
1 LED[7] 0.000518877
2 *173:X 0.000518877
3 LED[6] LED[7] 0
*RES
1 *173:X LED[7] 24.4258 
*END

*D_NET *9 0.00108348
*CONN
*P SW[0] I
*I *159:A I *D sky130_fd_sc_hd__buf_1
*CAP
1 SW[0] 0.000541738
2 *159:A 0.000541738
3 *159:A *147:B 0
4 *159:A *160:A 0
*RES
1 SW[0] *159:A 24.4979 
*END

*D_NET *10 0.000806817
*CONN
*P SW[1] I
*I *160:A I *D sky130_fd_sc_hd__buf_1
*CAP
1 SW[1] 0.000392038
2 *160:A 0.000392038
3 *160:A *147:A 0
4 *160:A *161:A 0
5 *160:A *29:10 2.27416e-05
6 *159:A *160:A 0
*RES
1 SW[1] *160:A 22.141 
*END

*D_NET *11 0.000572832
*CONN
*P SW[2] I
*I *161:A I *D sky130_fd_sc_hd__buf_1
*CAP
1 SW[2] 0.000286416
2 *161:A 0.000286416
3 *161:A *162:A 0
4 *160:A *161:A 0
*RES
1 SW[2] *161:A 20.4803 
*END

*D_NET *12 0.000694675
*CONN
*P SW[3] I
*I *162:A I *D sky130_fd_sc_hd__clkbuf_1
*CAP
1 SW[3] 0.000347337
2 *162:A 0.000347337
3 *162:A *146:A 0
4 *162:A *163:A 0
5 *161:A *162:A 0
*RES
1 SW[3] *162:A 21.6946 
*END

*D_NET *13 0.000605554
*CONN
*P SW[4] I
*I *163:A I *D sky130_fd_sc_hd__buf_1
*CAP
1 SW[4] 0.000302777
2 *163:A 0.000302777
3 *163:A *146:A 0
4 *163:A *164:A 0
5 *162:A *163:A 0
*RES
1 SW[4] *163:A 20.7838 
*END

*D_NET *14 0.000715317
*CONN
*P SW[5] I
*I *164:A I *D sky130_fd_sc_hd__buf_1
*CAP
1 SW[5] 0.000357659
2 *164:A 0.000357659
3 *164:A *146:A 0
4 *164:A *165:A 0
5 *163:A *164:A 0
*RES
1 SW[5] *164:A 21.9981 
*END

*D_NET *15 0.000563768
*CONN
*P SW[6] I
*I *165:A I *D sky130_fd_sc_hd__buf_1
*CAP
1 SW[6] 0.000281884
2 *165:A 0.000281884
3 *165:A *166:A 0
4 *164:A *165:A 0
*RES
1 SW[6] *165:A 20.4803 
*END

*D_NET *16 0.00123174
*CONN
*P SW[7] I
*I *166:A I *D sky130_fd_sc_hd__clkbuf_1
*CAP
1 SW[7] 0.000615872
2 *166:A 0.000615872
3 *165:A *166:A 0
*RES
1 SW[7] *166:A 25.0176 
*END

*D_NET *19 0.00237803
*CONN
*I *157:A I *D sky130_fd_sc_hd__nor2_1
*I *142:B I *D sky130_fd_sc_hd__xnor2_1
*I *141:Y O *D sky130_fd_sc_hd__nor2_1
*CAP
1 *157:A 0.000297261
2 *142:B 0.00015373
3 *141:Y 0
4 *19:6 0.000450991
5 *142:B *144:B 0.00012401
6 *142:B *148:A 0
7 *142:B *155:B 0.000429224
8 *142:B *29:16 7.83659e-05
9 *142:B *29:18 0.000196269
10 *142:B *37:24 1.18064e-05
11 *157:A *153:A 0.000312202
12 *157:A *155:B 1.02504e-05
13 *157:A *29:16 0.000313917
*RES
1 *141:Y *19:6 13.8 
2 *19:6 *142:B 19.3893 
3 *19:6 *157:A 20.8714 
*END

*D_NET *20 0.000640857
*CONN
*I *145:A_N I *D sky130_fd_sc_hd__and2b_1
*I *143:X O *D sky130_fd_sc_hd__o31a_1
*CAP
1 *145:A_N 0.000137161
2 *143:X 0.000137161
3 *145:A_N *37:20 1.24368e-05
4 *145:A_N *39:14 0.000354098
*RES
1 *143:X *145:A_N 22.0107 
*END

*D_NET *21 0.00878386
*CONN
*I *151:D I *D sky130_fd_sc_hd__or4_1
*I *145:B I *D sky130_fd_sc_hd__and2b_1
*I *147:B I *D sky130_fd_sc_hd__nor2_1
*I *152:A3 I *D sky130_fd_sc_hd__o31ai_1
*I *148:B I *D sky130_fd_sc_hd__and2_1
*I *144:X O *D sky130_fd_sc_hd__or4_2
*CAP
1 *151:D 0
2 *145:B 0
3 *147:B 0.000139225
4 *152:A3 0.000218243
5 *148:B 0.000623584
6 *144:X 0.000167385
7 *21:49 0.000718219
8 *21:43 0.00135234
9 *21:16 0.00176397
10 *21:12 0.000316186
11 *147:B *23:10 0.000172815
12 *148:B *144:D 2.37761e-05
13 *148:B *155:A 0.00014183
14 *148:B *155:B 6.76272e-05
15 *148:B *168:A 0.000315179
16 *148:B *172:A 0
17 *148:B *32:12 0
18 *148:B *38:14 0.000188957
19 *152:A3 *152:B1 2.36643e-05
20 *152:A3 *153:B 5.49489e-05
21 *21:12 *157:B 7.79781e-06
22 *21:12 *172:A 0.000239437
23 *21:12 *33:12 0.000292701
24 *21:16 *151:A 9.60939e-05
25 *21:16 *151:C 2.14658e-05
26 *21:43 *152:A2 0.000173797
27 *21:43 *168:A 0.000677155
28 *21:43 *23:10 0
29 *21:43 *38:14 0.000356676
30 *21:43 *39:14 2.96059e-05
31 *21:49 *23:10 0.000502329
32 *21:49 *39:14 9.8858e-05
33 *159:A *147:B 0
*RES
1 *144:X *21:12 23.425 
2 *21:12 *21:16 6.67857 
3 *21:16 *148:B 27.6929 
4 *21:16 *21:43 32.0179 
5 *21:43 *21:49 12.7679 
6 *21:49 *152:A3 17.2286 
7 *21:49 *147:B 16.6571 
8 *21:43 *145:B 9.3 
9 *21:12 *151:D 9.3 
*END

*D_NET *22 0.00271194
*CONN
*I *146:A I *D sky130_fd_sc_hd__clkbuf_1
*I *145:X O *D sky130_fd_sc_hd__and2b_1
*CAP
1 *146:A 0.00123665
2 *145:X 0.00123665
3 *146:A *149:A 0
4 *146:A *23:10 0
5 *146:A *39:14 0.000238641
6 *162:A *146:A 0
7 *163:A *146:A 0
8 *164:A *146:A 0
*RES
1 *145:X *146:A 48.0464 
*END

*D_NET *23 0.00403741
*CONN
*I *150:B I *D sky130_fd_sc_hd__xnor2_1
*I *149:A I *D sky130_fd_sc_hd__nor2_1
*I *147:Y O *D sky130_fd_sc_hd__nor2_1
*CAP
1 *150:B 0
2 *149:A 0.000317269
3 *147:Y 0.00113564
4 *23:10 0.00145291
5 *149:A *149:B 0.000143652
6 *149:A *156:A 0
7 *149:A *32:12 3.18747e-05
8 *149:A *33:12 0.000185118
9 *149:A *42:10 0
10 *23:10 *147:A 9.58126e-05
11 *23:10 *152:A2 0
12 *23:10 *152:B1 0
13 *23:10 *153:B 0
14 *23:10 *156:A 0
15 *23:10 *41:19 0
16 *23:10 *42:10 0
17 *146:A *149:A 0
18 *146:A *23:10 0
19 *147:B *23:10 0.000172815
20 *21:43 *23:10 0
21 *21:49 *23:10 0.000502329
*RES
1 *147:Y *23:10 36.1214 
2 *23:10 *149:A 20.7821 
3 *23:10 *150:B 13.8 
*END

*D_NET *24 0.00117602
*CONN
*I *149:B I *D sky130_fd_sc_hd__nor2_1
*I *148:X O *D sky130_fd_sc_hd__and2_1
*CAP
1 *149:B 0.000193074
2 *148:X 0.000193074
3 *149:B *148:A 0
4 *149:B *32:12 0.000288001
5 *149:B *33:12 0.000209304
6 *149:B *42:10 0.000148911
7 *149:A *149:B 0.000143652
*RES
1 *148:X *149:B 34.6 
*END

*D_NET *25 0.00536343
*CONN
*I *153:A I *D sky130_fd_sc_hd__and2_1
*I *155:B I *D sky130_fd_sc_hd__xor2_1
*I *151:X O *D sky130_fd_sc_hd__or4_1
*CAP
1 *153:A 0.000578564
2 *155:B 0.000332379
3 *151:X 0.00010375
4 *25:8 0.00101469
5 *153:A *153:B 0.000143652
6 *153:A *27:12 0.000298855
7 *153:A *29:16 0.000199296
8 *153:A *37:12 0.000196269
9 *153:A *38:10 0.000187733
10 *153:A *38:14 0.000703771
11 *155:B *148:A 0
12 *155:B *155:A 0
13 *155:B *32:12 0.000144773
14 *155:B *33:12 5.41494e-05
15 *155:B *38:14 0.000448253
16 *25:8 *151:B 0.000137983
17 *142:B *155:B 0.000429224
18 *148:B *155:B 6.76272e-05
19 *157:A *153:A 0.000312202
20 *157:A *155:B 1.02504e-05
*RES
1 *151:X *25:8 15.1571 
2 *25:8 *155:B 23.4786 
3 *25:8 *153:A 32.2643 
*END

*D_NET *26 0.00115064
*CONN
*I *153:B I *D sky130_fd_sc_hd__and2_1
*I *152:Y O *D sky130_fd_sc_hd__o31ai_1
*CAP
1 *153:B 0.000271522
2 *152:Y 0.000271522
3 *153:B *152:A2 0.00034321
4 *153:B *152:B1 6.57848e-05
5 *152:A3 *153:B 5.49489e-05
6 *153:A *153:B 0.000143652
7 *23:10 *153:B 0
*RES
1 *152:Y *153:B 34.1714 
*END

*D_NET *27 0.00365079
*CONN
*I *154:A I *D sky130_fd_sc_hd__clkbuf_1
*I *153:X O *D sky130_fd_sc_hd__and2_1
*CAP
1 *154:A 0
2 *153:X 0.00150555
3 *27:12 0.00150555
4 *27:12 *157:B 0
5 *27:12 *167:A 0.000125219
6 *27:12 *32:12 0
7 *27:12 *33:12 7.96264e-05
8 LED[3] *27:12 0.000115369
9 LED[4] *27:12 2.06178e-05
10 *153:A *27:12 0.000298855
*RES
1 *153:X *27:12 41.5857 
2 *27:12 *154:A 9.3 
*END

*D_NET *28 0.00235043
*CONN
*I *157:B I *D sky130_fd_sc_hd__nor2_1
*I *156:X O *D sky130_fd_sc_hd__and2_1
*CAP
1 *157:B 0.000585508
2 *156:X 0.000585508
3 *157:B *156:B 0.000268396
4 *157:B *171:A 0.00021093
5 *157:B *172:A 0.000128161
6 *157:B *32:12 0.000564125
7 *157:B *33:12 0
8 *21:12 *157:B 7.79781e-06
9 *27:12 *157:B 0
*RES
1 *156:X *157:B 41.4036 
*END

*D_NET *29 0.00826315
*CONN
*I *158:A I *D sky130_fd_sc_hd__clkbuf_1
*I *143:A2 I *D sky130_fd_sc_hd__o31a_1
*I *141:B I *D sky130_fd_sc_hd__nor2_1
*I *156:B I *D sky130_fd_sc_hd__and2_1
*I *144:B I *D sky130_fd_sc_hd__or4_2
*I *159:X O *D sky130_fd_sc_hd__buf_1
*CAP
1 *158:A 3.97802e-05
2 *143:A2 5.57166e-05
3 *141:B 1.69531e-05
4 *156:B 0.000107811
5 *144:B 0.000313187
6 *159:X 0.000328454
7 *29:18 0.000481343
8 *29:16 0.000302032
9 *29:14 0.000658152
10 *29:10 0.000745936
11 *141:B *151:A 5.33005e-05
12 *141:B *151:C 5.33005e-05
13 *143:A2 *37:20 5.33005e-05
14 *143:A2 *39:14 1.39726e-05
15 *144:B *144:A 0.000229054
16 *144:B *37:24 0.000125724
17 *156:B *171:A 0.000354105
18 *158:A *174:A 1.97695e-05
19 *158:A *37:12 5.33005e-05
20 *29:10 *147:A 0.000288779
21 *29:10 *37:12 0.000971213
22 *29:14 *147:A 0
23 *29:14 *37:12 0.000776745
24 *29:14 *40:10 0
25 *29:16 *37:12 3.17148e-05
26 *29:16 *37:20 0.000787523
27 *29:18 *37:20 1.02504e-05
28 *29:18 *37:24 0.000188741
29 *142:B *144:B 0.00012401
30 *142:B *29:16 7.83659e-05
31 *142:B *29:18 0.000196269
32 *153:A *29:16 0.000199296
33 *157:A *29:16 0.000313917
34 *157:B *156:B 0.000268396
35 *160:A *29:10 2.27416e-05
*RES
1 *159:X *29:10 20.2464 
2 *29:10 *29:14 14.3393 
3 *29:14 *29:16 10.1429 
4 *29:16 *29:18 2.55357 
5 *29:18 *144:B 18.8536 
6 *29:18 *156:B 17.6393 
7 *29:16 *141:B 14.3357 
8 *29:14 *143:A2 14.7464 
9 *29:10 *158:A 10.2643 
*END

*D_NET *30 0.00189246
*CONN
*I *167:A I *D sky130_fd_sc_hd__buf_2
*I *157:Y O *D sky130_fd_sc_hd__nor2_1
*CAP
1 *167:A 0.000846148
2 *157:Y 0.000846148
3 *167:A *168:A 0
4 *167:A *32:12 0
5 LED[2] *167:A 1.21955e-05
6 LED[3] *167:A 6.27457e-05
7 *27:12 *167:A 0.000125219
*RES
1 *157:Y *167:A 43.1536 
*END

*D_NET *31 0.00335339
*CONN
*I *168:A I *D sky130_fd_sc_hd__buf_2
*I *142:Y O *D sky130_fd_sc_hd__xnor2_1
*CAP
1 *168:A 0.000803878
2 *142:Y 0.000803878
3 *168:A *144:D 0.00058699
4 *168:A *37:12 0
5 *168:A *38:10 0.000126563
6 *168:A *38:14 3.9745e-05
7 *148:B *168:A 0.000315179
8 *167:A *168:A 0
9 *21:43 *168:A 0.000677155
*RES
1 *142:Y *168:A 49.9571 
*END

*D_NET *32 0.0053947
*CONN
*I *169:A I *D sky130_fd_sc_hd__buf_2
*I *146:X O *D sky130_fd_sc_hd__clkbuf_1
*CAP
1 *169:A 0.000140441
2 *146:X 0.00110765
3 *32:12 0.00124809
4 *32:12 *144:D 0.00117983
5 *32:12 *172:A 0.000224497
6 *32:12 *173:A 0.000317082
7 *32:12 *33:12 0.000148329
8 *148:B *32:12 0
9 *149:A *32:12 3.18747e-05
10 *149:B *32:12 0.000288001
11 *155:B *32:12 0.000144773
12 *157:B *32:12 0.000564125
13 *167:A *32:12 0
14 *27:12 *32:12 0
*RES
1 *146:X *32:12 48.5857 
2 *32:12 *169:A 11.4786 
*END

*D_NET *33 0.00407562
*CONN
*I *170:A I *D sky130_fd_sc_hd__buf_2
*I *149:Y O *D sky130_fd_sc_hd__nor2_1
*CAP
1 *170:A 0
2 *149:Y 0.0014728
3 *33:12 0.0014728
4 *33:12 *172:A 6.85604e-05
5 *33:12 *173:A 1.72798e-05
6 LED[4] *33:12 1.21955e-05
7 LED[5] *33:12 6.27457e-05
8 *149:A *33:12 0.000185118
9 *149:B *33:12 0.000209304
10 *155:B *33:12 5.41494e-05
11 *157:B *33:12 0
12 *21:12 *33:12 0.000292701
13 *27:12 *33:12 7.96264e-05
14 *32:12 *33:12 0.000148329
*RES
1 *149:Y *33:12 41.6214 
2 *33:12 *170:A 9.3 
*END

*D_NET *34 0.00196673
*CONN
*I *171:A I *D sky130_fd_sc_hd__buf_2
*I *150:Y O *D sky130_fd_sc_hd__xnor2_1
*CAP
1 *171:A 0.000675214
2 *150:Y 0.000675214
3 *171:A *41:19 5.12625e-05
4 *156:B *171:A 0.000354105
5 *157:B *171:A 0.00021093
*RES
1 *150:Y *171:A 29.725 
*END

*D_NET *35 0.00171955
*CONN
*I *172:A I *D sky130_fd_sc_hd__buf_2
*I *154:X O *D sky130_fd_sc_hd__clkbuf_1
*CAP
1 *172:A 0.000488655
2 *154:X 0.000488655
3 *172:A *173:A 8.15843e-05
4 *148:B *172:A 0
5 *157:B *172:A 0.000128161
6 *21:12 *172:A 0.000239437
7 *32:12 *172:A 0.000224497
8 *33:12 *172:A 6.85604e-05
*RES
1 *154:X *172:A 38.6 
*END

*D_NET *36 0.00127545
*CONN
*I *173:A I *D sky130_fd_sc_hd__clkbuf_4
*I *155:X O *D sky130_fd_sc_hd__xor2_1
*CAP
1 *173:A 0.000429754
2 *155:X 0.000429754
3 *172:A *173:A 8.15843e-05
4 *32:12 *173:A 0.000317082
5 *33:12 *173:A 1.72798e-05
*RES
1 *155:X *173:A 34.1893 
*END

*D_NET *37 0.00821884
*CONN
*I *143:A1 I *D sky130_fd_sc_hd__o31a_1
*I *141:A I *D sky130_fd_sc_hd__nor2_1
*I *144:A I *D sky130_fd_sc_hd__or4_2
*I *156:A I *D sky130_fd_sc_hd__and2_1
*I *160:X O *D sky130_fd_sc_hd__buf_1
*CAP
1 *143:A1 0
2 *141:A 0
3 *144:A 0.000247933
4 *156:A 0.000356498
5 *160:X 0.000799086
6 *37:24 0.000732585
7 *37:20 0.000578338
8 *37:12 0.00124927
9 *144:A *142:A 5.33005e-05
10 *144:A *144:C 0.000309273
11 *156:A *42:10 7.83462e-05
12 *37:12 *38:10 7.4826e-05
13 *37:20 *39:14 4.27437e-05
14 *37:20 *40:10 0
15 *37:20 *40:36 6.9253e-05
16 *37:24 *148:A 0.000161702
17 *37:24 *40:36 1.76135e-05
18 *142:B *37:24 1.18064e-05
19 *143:A2 *37:20 5.33005e-05
20 *144:B *144:A 0.000229054
21 *144:B *37:24 0.000125724
22 *145:A_N *37:20 1.24368e-05
23 *149:A *156:A 0
24 *153:A *37:12 0.000196269
25 *158:A *37:12 5.33005e-05
26 *168:A *37:12 0
27 *23:10 *156:A 0
28 *29:10 *37:12 0.000971213
29 *29:14 *37:12 0.000776745
30 *29:16 *37:12 3.17148e-05
31 *29:16 *37:20 0.000787523
32 *29:18 *37:20 1.02504e-05
33 *29:18 *37:24 0.000188741
*RES
1 *160:X *37:12 38.3179 
2 *37:12 *37:20 16.0179 
3 *37:20 *37:24 8.875 
4 *37:24 *156:A 24.0679 
5 *37:24 *144:A 15.3357 
6 *37:20 *141:A 13.8 
7 *37:12 *143:A1 9.3 
*END

*D_NET *38 0.00597728
*CONN
*I *143:A3 I *D sky130_fd_sc_hd__o31a_1
*I *144:C I *D sky130_fd_sc_hd__or4_2
*I *142:A I *D sky130_fd_sc_hd__xnor2_1
*I *161:X O *D sky130_fd_sc_hd__buf_1
*CAP
1 *143:A3 0
2 *144:C 0.000130865
3 *142:A 2.7879e-05
4 *161:X 0.00119561
5 *38:14 0.000548481
6 *38:10 0.00158535
7 *144:A *142:A 5.33005e-05
8 *144:A *144:C 0.000309273
9 *148:B *38:14 0.000188957
10 *153:A *38:10 0.000187733
11 *153:A *38:14 0.000703771
12 *155:B *38:14 0.000448253
13 *168:A *38:10 0.000126563
14 *168:A *38:14 3.9745e-05
15 *21:43 *38:14 0.000356676
16 *37:12 *38:10 7.4826e-05
*RES
1 *161:X *38:10 29.8 
2 *38:10 *38:14 19.1964 
3 *38:14 *142:A 9.83571 
4 *38:14 *144:C 12.3 
5 *38:10 *143:A3 13.8 
*END

*D_NET *39 0.00531528
*CONN
*I *144:D I *D sky130_fd_sc_hd__or4_2
*I *143:B1 I *D sky130_fd_sc_hd__o31a_1
*I *162:X O *D sky130_fd_sc_hd__clkbuf_1
*CAP
1 *144:D 0.000501156
2 *143:B1 0
3 *162:X 0.000872222
4 *39:14 0.00137338
5 *143:A2 *39:14 1.39726e-05
6 *145:A_N *39:14 0.000354098
7 *146:A *39:14 0.000238641
8 *148:B *144:D 2.37761e-05
9 *168:A *144:D 0.00058699
10 *21:43 *39:14 2.96059e-05
11 *21:49 *39:14 9.8858e-05
12 *32:12 *144:D 0.00117983
13 *37:20 *39:14 4.27437e-05
*RES
1 *162:X *39:14 23.6571 
2 *39:14 *143:B1 9.3 
3 *39:14 *144:D 35.0679 
*END

*D_NET *40 0.00777918
*CONN
*I *151:A I *D sky130_fd_sc_hd__or4_1
*I *148:A I *D sky130_fd_sc_hd__and2_1
*I *147:A I *D sky130_fd_sc_hd__nor2_1
*I *152:A1 I *D sky130_fd_sc_hd__o31ai_1
*I *163:X O *D sky130_fd_sc_hd__buf_1
*CAP
1 *151:A 0.000240443
2 *148:A 0.000481446
3 *147:A 0.000377756
4 *152:A1 0
5 *163:X 0.000688687
6 *40:36 0.000983131
7 *40:10 0.000973733
8 *40:6 0.00154591
9 *148:A *155:A 0.000175526
10 *148:A *42:10 0
11 *151:A *151:C 0.000299682
12 *40:10 *152:B1 0.00123032
13 *40:36 *152:B1 0
14 *40:36 *42:10 0
15 *141:B *151:A 5.33005e-05
16 *142:B *148:A 0
17 *149:B *148:A 0
18 *155:B *148:A 0
19 *160:A *147:A 0
20 *21:16 *151:A 9.60939e-05
21 *23:10 *147:A 9.58126e-05
22 *29:10 *147:A 0.000288779
23 *29:14 *147:A 0
24 *29:14 *40:10 0
25 *37:20 *40:10 0
26 *37:20 *40:36 6.9253e-05
27 *37:24 *148:A 0.000161702
28 *37:24 *40:36 1.76135e-05
*RES
1 *163:X *40:6 16.8179 
2 *40:6 *40:10 20.1071 
3 *40:10 *152:A1 13.8 
4 *40:10 *147:A 21.2286 
5 *40:6 *40:36 8.51786 
6 *40:36 *148:A 23.3357 
7 *40:36 *151:A 18.5857 
*END

*D_NET *41 0.00577177
*CONN
*I *152:A2 I *D sky130_fd_sc_hd__o31ai_1
*I *151:B I *D sky130_fd_sc_hd__or4_1
*I *150:A I *D sky130_fd_sc_hd__xnor2_1
*I *164:X O *D sky130_fd_sc_hd__buf_1
*CAP
1 *152:A2 0.000523008
2 *151:B 0.000356771
3 *150:A 0
4 *164:X 0.000324706
5 *41:19 0.00112691
6 *41:8 0.000571834
7 *151:B *151:C 0.000645036
8 *152:A2 *152:B1 0.00129124
9 *41:19 *152:B1 2.31791e-05
10 *41:19 *42:10 0.000202842
11 *153:B *152:A2 0.00034321
12 *171:A *41:19 5.12625e-05
13 *21:43 *152:A2 0.000173797
14 *23:10 *152:A2 0
15 *23:10 *41:19 0
16 *25:8 *151:B 0.000137983
*RES
1 *164:X *41:8 14.2643 
2 *41:8 *150:A 9.3 
3 *41:8 *41:19 9.94643 
4 *41:19 *151:B 20.925 
5 *41:19 *152:A2 30.3446 
*END

*D_NET *42 0.00803284
*CONN
*I *152:B1 I *D sky130_fd_sc_hd__o31ai_1
*I *151:C I *D sky130_fd_sc_hd__or4_1
*I *165:X O *D sky130_fd_sc_hd__buf_1
*CAP
1 *152:B1 0.000484955
2 *151:C 0.000221158
3 *165:X 0.000957109
4 *42:10 0.00166322
5 *42:10 *155:A 0.000622633
6 *141:B *151:C 5.33005e-05
7 *148:A *42:10 0
8 *149:A *42:10 0
9 *149:B *42:10 0.000148911
10 *151:A *151:C 0.000299682
11 *151:B *151:C 0.000645036
12 *152:A2 *152:B1 0.00129124
13 *152:A3 *152:B1 2.36643e-05
14 *153:B *152:B1 6.57848e-05
15 *156:A *42:10 7.83462e-05
16 *21:16 *151:C 2.14658e-05
17 *23:10 *152:B1 0
18 *23:10 *42:10 0
19 *40:10 *152:B1 0.00123032
20 *40:36 *152:B1 0
21 *40:36 *42:10 0
22 *41:19 *152:B1 2.31791e-05
23 *41:19 *42:10 0.000202842
*RES
1 *165:X *42:10 30.1393 
2 *42:10 *151:C 20.4964 
3 *42:10 *152:B1 32.6929 
*END

*D_NET *43 0.00183326
*CONN
*I *155:A I *D sky130_fd_sc_hd__xor2_1
*I *166:X O *D sky130_fd_sc_hd__clkbuf_1
*CAP
1 *155:A 0.000446637
2 *166:X 0.000446637
3 *148:A *155:A 0.000175526
4 *148:B *155:A 0.00014183
5 *155:B *155:A 0
6 *42:10 *155:A 0.000622633
*RES
1 *166:X *155:A 38.1893 
*END

*D_NET *44 0.000439293
*CONN
*I *174:A I *D sky130_fd_sc_hd__buf_2
*I *158:X O *D sky130_fd_sc_hd__clkbuf_1
*CAP
1 *174:A 0.000209762
2 *158:X 0.000209762
3 *158:A *174:A 1.97695e-05
*RES
1 *158:X *174:A 22.3321 
*END
